data_test
_gsas_GSASII_version  5790
_pd_block_id  2024-07-31T10:15|test|noname|lab_xrd
_audit_creation_method  "created in GSAS-II"
_audit_creation_date  2024-07-31T10:15
_audit_author_name  "no name"
_audit_update_record
   "2024-07-31T10:15  Initial software-generated CIF"

# Standard version of Publication_Template template follows
#=============================================================================
# this information describes the project, paper etc. for the CIF             #
# Acta Cryst. Section C papers and editorial correspondence is generated     #
# from the information in this section                                       #
#                                                                            #
#   (from)   CIF submission form for Rietveld refinements (Acta Cryst. C)    #
#                                                 Version 14 December 1998   #
#=============================================================================
# 1. SUBMISSION DETAILS

_publ_contact_author_name            ?   # Name of author for correspondence
_publ_contact_author_address             # Address of author for correspondence
; ?
;
_publ_contact_author_email           ?
_publ_contact_author_fax             ?
_publ_contact_author_phone           ?

_publ_contact_letter
; ?
;
   
_publ_requested_journal              ?
_publ_requested_coeditor_name        ?
_publ_requested_category             ?   # Acta C: one of CI/CM/CO/FI/FM/FO

#==============================================================================

# 2. PROCESSING SUMMARY (IUCr Office Use Only)

_journal_data_validation_number      ?

_journal_date_recd_electronic        ?
_journal_date_to_coeditor            ?
_journal_date_from_coeditor          ?
_journal_date_accepted               ?
_journal_date_printers_first         ?
_journal_date_printers_final         ?
_journal_date_proofs_out             ?
_journal_date_proofs_in              ?
_journal_coeditor_name               ?
_journal_coeditor_code               ?
_journal_coeditor_notes
; ?
;
_journal_techeditor_code             ?
_journal_techeditor_notes
; ?
;
_journal_coden_ASTM                  ?
_journal_name_full                   ?
_journal_year                        ?
_journal_volume                      ?
_journal_issue                       ?
_journal_page_first                  ?
_journal_page_last                   ?
_journal_paper_category              ?
_journal_suppl_publ_number           ?
_journal_suppl_publ_pages            ?

#==============================================================================

# 3. TITLE AND AUTHOR LIST

_publ_section_title
; ?
;
_publ_section_title_footnote
; ?
;         
 
# The loop structure below should contain the names and addresses of all 
# authors, in the required order of publication. Repeat as necessary.

loop_
	_publ_author_name
        _publ_author_footnote
	_publ_author_address
 ?                                   #<--'Last name, first name' 
; ?
;
; ?
;

#==============================================================================

# 4. TEXT

_publ_section_synopsis
;  ?
;
_publ_section_abstract                         
; ?
;          
_publ_section_comment                          
; ?
;
_publ_section_exptl_prep      # Details of the preparation of the sample(s)
                              # should be given here. 
; ?
;
_publ_section_exptl_refinement                  
; ?
;
_publ_section_references
; ?
;
_publ_section_figure_captions
; ?
;
_publ_section_acknowledgements
; ?
;

#=============================================================================
# 5. OVERALL REFINEMENT & COMPUTING DETAILS

_refine_special_details
; ?
;
_pd_proc_ls_special_details
; ?
;

# The following items are used to identify the programs used.
_computing_molecular_graphics     ?
_computing_publication_material   ?

_refine_ls_weighting_scheme       ?        
_refine_ls_weighting_details      ?
_refine_ls_hydrogen_treatment     ?        
_refine_ls_extinction_method      ?        
_refine_ls_extinction_coef        ?         
_refine_ls_number_constraints     ?        

_refine_ls_restrained_S_all       ?        
_refine_ls_restrained_S_obs       ?

#==============================================================================
# 6. SAMPLE PREPARATION DATA

# (In the unusual case where multiple samples are used in a single
#  Rietveld study, this information should be moved into the phase
#  blocks)

# The following three fields describe the preparation of the material.
# The cooling rate is in K/min.  The pressure at which the sample was  
# prepared is in kPa.  The temperature of preparation is in K.
               
_pd_prep_cool_rate                ?        
_pd_prep_pressure                 ?        
_pd_prep_temperature              ?        

_pd_char_colour                   ?       # use ICDD colour descriptions

_pd_proc_info_datetime  2024-07-31T10:15
_pd_calc_method  "Rietveld Refinement"
_computing_structure_refinement
   "GSAS-II (Toby & Von Dreele, J. Appl. Cryst. 46, 544-549, 2013)"
_refine_ls_matrix_type  full
_refine_ls_number_parameters  14
_refine_ls_goodness_of_fit_all  5.030
_refine_ls_shift/su_max  0.1202

# OVERALL WEIGHTED R-FACTOR
_refine_ls_wR_factor_obs  0.08543

# Standard version of Phase_Template template follows
#==============================================================================
# 7. CHEMICAL, STRUCTURAL AND CRYSTAL DATA

_pd_char_particle_morphology      ?

_chemical_name_systematic
; ?
;
_chemical_name_common             ?
_chemical_formula_moiety          ?        
_chemical_formula_structural      ?        
_chemical_formula_analytical      ?
_chemical_melting_point           ?
_chemical_compound_source         ?       # for minerals and 
                                          # natural products
_symmetry_space_group_name_Hall   ?

_exptl_crystal_F_000               ?
_exptl_crystal_density_meas        ?
_exptl_crystal_density_method      ?

_cell_special_details
; ?
;

_geom_special_details             ?

# The following item identifies the program(s) used (if appropriate).
_computing_structure_solution     ?        

#==============================================================================

# 8. Phase information from GSAS-II



# phase info for LaB6 follows
_pd_phase_name  LaB6
_cell_length_a  4.15682
_cell_length_b  4.15682
_cell_length_c  4.15682
_cell_angle_alpha  90
_cell_angle_beta   90
_cell_angle_gamma  90
_cell_volume  71.826
_exptl_crystal_density_diffrn  4.7108
_symmetry_cell_setting  cubic
_symmetry_space_group_name_H-M  "P m -3 m"
loop_
    _space_group_symop_id
    _space_group_symop_operation_xyz
     1  x,y,z
     2  z,x,y
     3  y,z,x
     4  x,y,-z
     5  -z,x,y
     6  y,-z,x
     7  -z,x,-y
     8  -y,-z,x
     9  y,-z,-x
    10  -x,y,-z
    11  -z,-x,y
    12  x,-y,-z
    13  y,x,z
    14  z,y,x
    15  x,z,y
    16  y,x,-z
    17  -z,y,x
    18  x,-z,y
    19  -z,y,-x
    20  -x,-z,y
    21  x,-z,-y
    22  -y,x,-z
    23  -z,-y,x
    24  y,-x,-z
    25  -x,-y,-z
    26  -z,-x,-y
    27  -y,-z,-x
    28  -x,-y,z
    29  z,-x,-y
    30  -y,z,-x
    31  z,-x,y
    32  y,z,-x
    33  -y,z,x
    34  x,-y,z
    35  z,x,-y
    36  -x,y,z
    37  -y,-x,-z
    38  -z,-y,-x
    39  -x,-z,-y
    40  -y,-x,z
    41  z,-y,-x
    42  -x,z,-y
    43  z,-y,x
    44  x,z,-y
    45  -x,z,y
    46  y,-x,z
    47  z,y,-x
    48  -y,x,z

# ATOMIC COORDINATES AND DISPLACEMENT PARAMETERS
loop_ 
   _atom_site_label
   _atom_site_type_symbol
   _atom_site_fract_x
   _atom_site_fract_y
   _atom_site_fract_z
   _atom_site_occupancy
   _atom_site_adp_type
   _atom_site_U_iso_or_equiv
   _atom_site_site_symmetry_multiplicity
La     La   0.00000     0.00000     0.00000     1.0000     Uiso -0.0190(5) 1   
B      B    0.50000     0.50000     0.2078(13)  1.0000     Uiso -0.0119(26) 6   

loop_  _atom_type_symbol _atom_type_number_in_cell
        _atom_type_scat_Cromer_Mann_a1 _atom_type_scat_Cromer_Mann_a2 _atom_type_scat_Cromer_Mann_a3
        _atom_type_scat_Cromer_Mann_a4 _atom_type_scat_Cromer_Mann_b1 _atom_type_scat_Cromer_Mann_b2
        _atom_type_scat_Cromer_Mann_b3 _atom_type_scat_Cromer_Mann_b4 _atom_type_scat_Cromer_Mann_c
        _atom_type_scat_length_neutron _atom_type_scat_source
        _atom_type_scat_dispersion_real _atom_type_scat_dispersion_imag _atom_type_scat_dispersion_source
  B       6      2.0545     1.3326     1.0979     0.7068     23.2185    1.021      60.3498    0.1403     -0.1932    0.53
      https://github.com/AdvancedPhotonSource/GSAS-II/blob/master/GSASII/atmdata.py
     0.009   0.004   https://github.com/AdvancedPhotonSource/GSAS-II/blob/master/GSASII/atmdata.py
  La      1      20.578     19.599     11.3727    3.2872     2.9482     0.2445     18.7726    133.124    2.1468     0.824
      https://github.com/AdvancedPhotonSource/GSAS-II/blob/master/GSASII/atmdata.py
    -1.418   9.034   https://github.com/AdvancedPhotonSource/GSAS-II/blob/master/GSASII/atmdata.py

# Note that Z affects _cell_formula_sum and _weight
_cell_formula_units_Z  1
_chemical_formula_sum  "B6 La"
_chemical_formula_weight  203.77

# MOLECULAR GEOMETRY
loop_
   _geom_bond_atom_site_label_1
   _geom_bond_atom_site_label_2
   _geom_bond_distance
   _geom_bond_site_symmetry_1
   _geom_bond_site_symmetry_2
   _geom_bond_publ_flag
  B      B      1.718(7)     1_555    2_555 yes
  B      B      1.718(7)     1_555    3_555 yes
  B      B      1.728(10)    1_555    4_555 yes
  B      B      1.718(7)     1_555    5_655 yes
  B      B      1.718(7)     1_555    6_565 yes
_pd_proc_ls_pref_orient_corr
   "March-Dollase correction coef. = 1.000 axis = [0, 0, 1]"
_pd_proc_ls_profile_function
;
Finger-Cox-Jephcoat function parameters U, V, W, X, Y, SH/L:
  peak variance(Gauss) = Utan(Th)^2^+Vtan(Th)+W:
  peak HW(Lorentz) = X/cos(Th)+Ytan(Th); SH/L = S/L+H/L
  U, V, W in (centideg)^2^, X & Y in centideg
    -2.4(7), -2.000, 6.62(21), 0.000, 0.000, 0.0457(4), 

;

# Standard version of Instrument_Template template follows
#==============================================================================
# 9. INSTRUMENT CHARACTERIZATION

_exptl_special_details
; ?
;

# if regions of the data are excluded, the reason(s) are supplied here:
_pd_proc_info_excluded_regions
; ?
;

# The following item is used to identify the equipment used to record 
# the powder pattern when the diffractogram was measured at a laboratory 
# other than the authors' home institution, e.g. when neutron or synchrotron
# radiation is used.

_pd_instr_location
; ?
;
_pd_calibration_special_details           # description of the method used
                                          # to calibrate the instrument
; ?
;

_diffrn_source                    ?       
_diffrn_source_target             ?
_diffrn_source_type               ?
_diffrn_measurement_device_type   ?       
_diffrn_detector                  ?       
_diffrn_detector_type             ?       # make or model of detector

_pd_meas_scan_method              ?       # options are 'step', 'cont',
                                          # 'tof', 'fixed' or
                                          # 'disp' (= dispersive)
_pd_meas_special_details
;  ?
;

# The following two items identify the program(s) used (if appropriate).
_computing_data_collection        ?        
_computing_data_reduction         ?                   

# Describe any processing performed on the data, prior to refinement.
# For example: a manual Lp correction or a precomputed absorption correction
_pd_proc_info_data_reduction      ?

# The following item is used for angular dispersive measurements only.

_diffrn_radiation_monochromator   ?        

# The following items are used to define the size of the instrument.
# Not all distances are appropriate for all instrument types.

_pd_instr_dist_src/mono           ?
_pd_instr_dist_mono/spec          ?
_pd_instr_dist_src/spec           ?
_pd_instr_dist_spec/anal          ?
_pd_instr_dist_anal/detc          ?
_pd_instr_dist_spec/detc          ?

# 10. Specimen size and mounting information

# The next three fields give the specimen dimensions in mm.  The equatorial 
# plane contains the incident and diffracted beam.

_pd_spec_size_axial               ?       # perpendicular to 
                                          # equatorial plane

_pd_spec_size_equat               ?       # parallel to 
                                          # scattering vector 
                                          # in transmission

_pd_spec_size_thick               ?       # parallel to 
                                          # scattering vector 
                                          # in reflection

_pd_spec_mounting                         # This field should be
                                          # used to give details of the 
                                          # container.
; ?
;

_pd_spec_mount_mode               ?       # options are 'reflection' 
                                          # or 'transmission'
    
_pd_spec_shape                    ?       # options are 'cylinder' 
                                          # 'flat_sheet' or 'irregular'


_diffrn_radiation_type  K\a~1,2~
loop_
   _diffrn_radiation_wavelength
   _diffrn_radiation_wavelength_wt
   _diffrn_radiation_wavelength_id
  1.54050         1.0             1     
  1.54430         0.5000          2     
_refine_ls_R_F_factor        0.05414
_refine_ls_R_Fsqd_factor     0.12610
_pd_proc_ls_prof_R_factor     0.05973
_pd_proc_ls_prof_wR_factor    0.08543
_gsas_proc_ls_prof_R_B_factor   0.10042
_gsas_proc_ls_prof_wR_B_factor  0.12467
_pd_proc_ls_prof_wR_expected  0.01702
_diffrn_radiation_probe  x-ray
_diffrn_radiation_polarisn_ratio  0.7000
_pd_proc_ls_background_function
;
Background function: "chebyschev-1" function with 6 terms:
    2764(7), -2662(12), 1457(10), -725(10), 310(8), -78(7), 
;
_diffrn_ambient_temperature  300
_diffrn_ambient_pressure  100

# STRUCTURE FACTOR TABLE
loop_
   _refln_index_h
   _refln_index_k
   _refln_index_l
   _refln_F_squared_meas
   _refln_F_squared_calc
   _refln_phase_calc
   _refln_d_spacing
   _gsas_i100_meas
  1    0    0    1222.4312  1450.0933  -0.0    4.15682  44.92  
  1    1    0    2777.9978  2667.7349  0.0     2.93932  100.00 
  1    1    1    3216.8686  2640.7427  -0.0    2.39994  50.52  
  2    0    0    3072.7794  2658.1427  -0.0    2.07841  26.71  
  2    1    0    2329.8530  2094.0148  -0.0    1.85899  63.94  
  2    1    1    1580.6624  1497.8958  0.0     1.69701  35.79  
  2    2    0    1697.1942  1675.5917  -0.0    1.46966  14.28  
  2    2    1    2341.3752  2639.7689  0.0     1.38561  35.06  
  3    0    0    975.7523   1100.1058  0.0     1.38561  3.65   
_reflns_number_total  9
_reflns_limit_h_min  1
_reflns_limit_h_max  3
_reflns_limit_k_min  0
_reflns_limit_k_max  2
_reflns_limit_l_min  0
_reflns_limit_l_max  1
_reflns_d_resolution_low    4.157
_reflns_d_resolution_high   1.386

# POWDER DATA TABLE
_pd_meas_2theta_range_min  10.00000
_pd_meas_2theta_range_max  70.00445
_pd_meas_2theta_range_inc  0.01974
_pd_proc_2theta_range_min  9.97887
_pd_proc_2theta_range_max  69.98332
_pd_proc_2theta_range_inc  0.01974
_pd_proc_number_of_points  3040

loop_
   _pd_meas_intensity_total
   _pd_calc_intensity_total
   _pd_proc_intensity_bkg_calc
   _pd_proc_ls_weight
  7393         7997.1553    7997.1553   0.0001352631 
  7478         7982.7371    7982.7371   0.0001337256 
  7347         7968.3464    7968.3464   0.00013611 
  7279         7953.9832    7953.9832   0.0001373815 
  7392         7939.6474    7939.6474   0.0001352814 
  7424         7925.339     7925.339    0.0001346983 
  7381         7911.058     7911.058    0.000135483 
  7274         7896.8043    7896.8043   0.0001374759 
  7328         7882.5779    7882.5779   0.0001364629 
  7388         7868.3787    7868.3787   0.0001353546 
  7296         7854.2067    7854.2067   0.0001370614 
  7202         7840.0619    7840.0619   0.0001388503 
  7234         7825.9443    7825.9443   0.0001382361 
  7338         7811.8537    7811.8537   0.0001362769 
  7303         7797.7901    7797.7901   0.00013693 
  7292         7783.7536    7783.7536   0.0001371366 
  7160         7769.744     7769.744    0.0001396648 
  7238         7755.7613    7755.7613   0.0001381597 
  7213         7741.8055    7741.8055   0.0001386386 
  7249         7727.8766    7727.8766   0.0001379501 
  7107         7713.9744    7713.9744   0.0001407063 
  7470         7700.099     7700.099    0.0001338688 
  7059         7686.2504    7686.2504   0.0001416631 
  7202         7672.4284    7672.4284   0.0001388503 
  7034         7658.6331    7658.6331   0.0001421666 
  7300         7644.8643    7644.8643   0.0001369863 
  7183         7631.1222    7631.1222   0.0001392176 
  7322         7617.4065    7617.4065   0.0001365747 
  7089         7603.7174    7603.7174   0.0001410636 
  7400         7590.0547    7590.0547   0.0001351351 
  7359         7576.4184    7576.4184   0.000135888 
  7208         7562.8084    7562.8084   0.0001387347 
  7272         7549.2248    7549.2248   0.0001375138 
  7251         7535.6675    7535.6675   0.000137912 
  7075         7522.1364    7522.1364   0.0001413428 
  7139         7508.6315    7508.6315   0.0001400756 
  7106         7495.1528    7495.1528   0.0001407261 
  7257         7481.7002    7481.7002   0.000137798 
  7107         7468.2738    7468.2738   0.0001407063 
  7084         7454.8733    7454.8733   0.0001411632 
  7075         7441.4989    7441.4989   0.0001413428 
  7256         7428.1505    7428.1505   0.000137817 
  7112         7414.828     7414.828    0.0001406074 
  7100         7401.5313    7401.5313   0.0001408451 
  6848         7388.2606    7388.2606   0.000146028 
  7228         7375.0156    7375.0156   0.0001383509 
  6984         7361.7965    7361.7965   0.0001431844 
  6865         7348.603     7348.603    0.0001456664 
  7025         7335.4353    7335.4353   0.0001423488 
  7156         7322.2933    7322.2933   0.0001397429 
  7106         7309.1768    7309.1768   0.0001407261 
  6954         7296.086     7296.086    0.0001438021 
  7044         7283.0207    7283.0207   0.0001419648 
  7116         7269.9809    7269.9809   0.0001405284 
  7053         7256.9665    7256.9665   0.0001417836 
  7080         7243.9776    7243.9776   0.0001412429 
  7060         7231.0141    7231.0141   0.0001416431 
  7209         7218.076     7218.076    0.0001387155 
  7031         7205.1631    7205.1631   0.0001422273 
  6986         7192.2755    7192.2755   0.0001431434 
  6900         7179.4132    7179.4132   0.0001449275 
  7101         7166.5761    7166.5761   0.0001408252 
  7070         7153.7641    7153.7641   0.0001414427 
  6853         7140.9773    7140.9773   0.0001459215 
  7014         7128.2155    7128.2155   0.000142572 
  7097         7115.4788    7115.4788   0.0001409046 
  6929         7102.7671    7102.7671   0.000144321 
  6918         7090.0804    7090.0804   0.0001445504 
  6919         7077.4186    7077.4186   0.0001445296 
  7013         7064.7817    7064.7817   0.0001425923 
  6916         7052.1696    7052.1696   0.0001445922 
  6861         7039.5824    7039.5824   0.0001457513 
  6848         7027.0199    7027.0199   0.000146028 
  6936         7014.4822    7014.4822   0.0001441753 
  6945         7001.9692    7001.9692   0.0001439885 
  7044         6989.4809    6989.4809   0.0001419648 
  6831         6977.0172    6977.0172   0.0001463915 
  6941         6964.5781    6964.5781   0.0001440715 
  6818         6952.1635    6952.1635   0.0001466706 
  6755         6939.7735    6939.7735   0.0001480385 
  6794         6927.4079    6927.4079   0.0001471887 
  6908         6915.0668    6915.0668   0.0001447597 
  6947         6902.75      6902.75     0.000143947 
  6828         6890.4577    6890.4577   0.0001464558 
  6800         6878.1897    6878.1897   0.0001470588 
  6901         6865.9459    6865.9459   0.0001449065 
  6772         6853.7265    6853.7265   0.0001476669 
  6906         6841.5312    6841.5312   0.0001448016 
  6874         6829.3601    6829.3601   0.0001454757 
  6742         6817.2132    6817.2132   0.0001483239 
  6911         6805.0903    6805.0903   0.0001446969 
  6775         6792.9916    6792.9916   0.0001476015 
  6957         6780.9168    6780.9168   0.0001437401 
  6872         6768.8661    6768.8661   0.000145518 
  6837         6756.8393    6756.8393   0.000146263 
  6668         6744.8364    6744.8364   0.00014997 
  6538         6732.8574    6732.8574   0.000152952 
  6856         6720.9023    6720.9023   0.0001458576 
  6658         6708.971     6708.971    0.0001501953 
  6843         6697.0634    6697.0634   0.0001461347 
  6696         6685.1796    6685.1796   0.0001493429 
  6895         6673.3195    6673.3195   0.0001450326 
  6702         6661.483     6661.483    0.0001492092 
  6755         6649.6702    6649.6702   0.0001480385 
  6649         6637.8809    6637.8809   0.0001503986 
  6843         6626.1152    6626.1152   0.0001461347 
  6683         6614.373     6614.373    0.0001496334 
  6559         6602.6543    6602.6543   0.0001524623 
  6787         6590.959     6590.959    0.0001473405 
  6658         6579.2872    6579.2872   0.0001501953 
  6613         6567.6387    6567.6387   0.0001512173 
  6634         6556.0135    6556.0135   0.0001507386 
  6555         6544.4117    6544.4117   0.0001525553 
  6746         6532.8331    6532.8331   0.000148236 
  6439         6521.2777    6521.2777   0.0001553036 
  6545         6509.7455    6509.7455   0.0001527884 
  6557         6498.2364    6498.2364   0.0001525088 
  6599         6486.7505    6486.7505   0.0001515381 
  6717         6475.2877    6475.2877   0.000148876 
  6621         6463.8478    6463.8478   0.0001510346 
  6640         6452.431     6452.431    0.0001506024 
  6738         6441.0372    6441.0372   0.000148412 
  6539         6429.6663    6429.6663   0.0001529286 
  6452         6418.3183    6418.3183   0.0001549907 
  6604         6406.9932    6406.9932   0.0001514234 
  6589         6395.6908    6395.6908   0.0001517681 
  6565         6384.4113    6384.4113   0.0001523229 
  6558         6373.1546    6373.1546   0.0001524855 
  6453         6361.9205    6361.9205   0.0001549667 
  6631         6350.7091    6350.7091   0.0001508068 
  6378         6339.5204    6339.5204   0.000156789 
  6505         6328.3543    6328.3543   0.0001537279 
  6313         6317.2108    6317.2108   0.0001584033 
  6594         6306.0898    6306.0898   0.000151653 
  6508         6294.9913    6294.9913   0.000153657 
  6333         6283.9153    6283.9153   0.000157903 
  6544         6272.8617    6272.8617   0.0001528117 
  6645         6261.8305    6261.8305   0.0001504891 
  6433         6250.8217    6250.8217   0.0001554485 
  6425         6239.8352    6239.8352   0.000155642 
  6395         6228.8709    6228.8709   0.0001563722 
  6505         6217.929     6217.929    0.0001537279 
  6372         6207.0093    6207.0093   0.0001569366 
  6417         6196.1117    6196.1117   0.0001558361 
  6331         6185.2363    6185.2363   0.0001579529 
  6509         6174.383     6174.383    0.0001536334 
  6337         6163.5519    6163.5519   0.0001578034 
  6397         6152.7427    6152.7427   0.0001563233 
  6353         6141.9556    6141.9556   0.0001574059 
  6385         6131.1904    6131.1904   0.0001566171 
  6251         6120.4472    6120.4472   0.0001599744 
  6468         6109.7258    6109.7258   0.0001546073 
  6289         6099.0264    6099.0264   0.0001590078 
  6257         6088.3488    6088.3488   0.000159821 
  6332         6077.693     6077.693    0.000157928 
  6310         6067.0589    6067.0589   0.0001584786 
  6232         6056.4466    6056.4466   0.0001604621 
  6353         6045.856     6045.856    0.0001574059 
  6297         6035.287     6035.287    0.0001588058 
  6304         6024.7397    6024.7397   0.0001586294 
  6157         6014.2139    6014.2139   0.0001624168 
  6203         6003.7098    6003.7098   0.0001612123 
  6386         5993.2271    5993.2271   0.0001565925 
  6197         5982.7659    5982.7659   0.0001613684 
  6134         5972.3262    5972.3262   0.0001630258 
  6210         5961.9079    5961.9079   0.0001610306 
  6133         5951.511     5951.511    0.0001630523 
  6195         5941.1354    5941.1354   0.0001614205 
  6156         5930.7812    5930.7812   0.0001624431 
  6197         5920.4482    5920.4482   0.0001613684 
  6021         5910.1365    5910.1365   0.0001660854 
  6061         5899.846     5899.846    0.0001649893 
  6021         5889.5767    5889.5767   0.0001660854 
  6060         5879.3285    5879.3285   0.0001650165 
  6043         5869.1015    5869.1015   0.0001654807 
  6153         5858.8955    5858.8955   0.0001625223 
  6073         5848.7105    5848.7105   0.0001646633 
  6180         5838.5466    5838.5466   0.0001618123 
  6111         5828.4036    5828.4036   0.0001636393 
  5848         5818.2816    5818.2816   0.0001709986 
  5958         5808.1805    5808.1805   0.0001678416 
  6053         5798.1003    5798.1003   0.0001652073 
  6088         5788.0409    5788.0409   0.0001642576 
  5991         5778.0023    5778.0023   0.000166917 
  6153         5767.9845    5767.9845   0.0001625223 
  6099         5757.9874    5757.9874   0.0001639613 
  5859         5748.011     5748.011    0.0001706776 
  5982         5738.0553    5738.0553   0.0001671682 
  5981         5728.1203    5728.1203   0.0001671961 
  6060         5718.2058    5718.2058   0.0001650165 
  5828         5708.3119    5708.3119   0.0001715854 
  6023         5698.4386    5698.4386   0.0001660302 
  5839         5688.5857    5688.5857   0.0001712622 
  5985         5678.7533    5678.7533   0.0001670844 
  5913         5668.9414    5668.9414   0.0001691189 
  5957         5659.1498    5659.1498   0.0001678697 
  5826         5649.3787    5649.3787   0.0001716444 
  6070         5639.6278    5639.6278   0.0001647446 
  5878         5629.8973    5629.8973   0.0001701259 
  5781         5620.187     5620.187    0.0001729805 
  5786         5610.497     5610.497    0.000172831 
  5749         5600.8272    5600.8272   0.0001739433 
  5859         5591.1776    5591.1776   0.0001706776 
  5805         5581.548     5581.548    0.0001722653 
  5853         5571.9386    5571.9386   0.0001708526 
  5855         5562.3493    5562.3493   0.0001707942 
  5712         5552.78      5552.78     0.00017507 
  5737         5543.2307    5543.2307   0.0001743071 
  5775         5533.7014    5533.7014   0.0001731602 
  5886         5524.192     5524.192    0.0001698947 
  5665         5514.7025    5514.7025   0.0001765225 
  5697         5505.2329    5505.2329   0.000175531 
  5668         5495.7832    5495.7832   0.0001764291 
  5643         5486.3532    5486.3532   0.0001772107 
  5792         5476.9431    5476.9431   0.0001726519 
  5749         5467.5526    5467.5526   0.0001739433 
  5668         5458.1819    5458.1819   0.0001764291 
  5662         5448.8309    5448.8309   0.000176616 
  5785         5439.4995    5439.4995   0.0001728608 
  5713         5430.1877    5430.1877   0.0001750394 
  5570         5420.8955    5420.8955   0.0001795332 
  5733         5411.6229    5411.6229   0.0001744287 
  5748         5402.3697    5402.3697   0.0001739736 
  5696         5393.1361    5393.1361   0.0001755618 
  5559         5383.9219    5383.9219   0.0001798885 
  5693         5374.7271    5374.7271   0.0001756543 
  5644         5365.5517    5365.5517   0.0001771793 
  5646         5356.3956    5356.3956   0.0001771165 
  5585         5347.2589    5347.2589   0.000179051 
  5593         5338.1415    5338.1415   0.0001787949 
  5566         5329.0433    5329.0433   0.0001796622 
  5592         5319.9644    5319.9644   0.0001788269 
  5521         5310.9046    5310.9046   0.0001811266 
  5802         5301.864     5301.864    0.0001723544 
  5635         5292.8426    5292.8426   0.0001774623 
  5498         5283.8402    5283.8402   0.0001818843 
  5614         5274.8569    5274.8569   0.0001781261 
  5554         5265.8926    5265.8926   0.0001800504 
  5471         5256.9474    5256.9474   0.0001827819 
  5332         5248.0211    5248.0211   0.0001875469 
  5379         5239.1137    5239.1137   0.0001859082 
  5378         5230.2253    5230.2253   0.0001859427 
  5490         5221.3557    5221.3557   0.0001821494 
  5514         5212.505     5212.505    0.0001813565 
  5380         5203.6731    5203.6731   0.0001858736 
  5486         5194.8599    5194.8599   0.0001822822 
  5250         5186.0656    5186.0656   0.0001904762 
  5361         5177.2899    5177.2899   0.0001865324 
  5433         5168.5329    5168.5329   0.0001840604 
  5468         5159.7946    5159.7946   0.0001828822 
  5313         5151.0749    5151.0749   0.0001882176 
  5307         5142.3737    5142.3737   0.0001884304 
  5237         5133.6912    5133.6912   0.000190949 
  5407         5125.0272    5125.0272   0.0001849454 
  5348         5116.3816    5116.3816   0.0001869858 
  5244         5107.7546    5107.7546   0.0001906941 
  5273         5099.1459    5099.1459   0.0001896454 
  5375         5090.5557    5090.5557   0.0001860465 
  5162         5081.9838    5081.9838   0.0001937234 
  5370         5073.4303    5073.4303   0.0001862197 
  5233         5064.8951    5064.8951   0.000191095 
  5247         5056.3782    5056.3782   0.0001905851 
  5205         5047.8795    5047.8795   0.000192123 
  5196         5039.3991    5039.3991   0.0001924557 
  5231         5030.9368    5030.9368   0.000191168 
  5268         5022.4927    5022.4927   0.0001898254 
  5136         5014.0667    5014.0667   0.000194704 
  5266         5005.6588    5005.6588   0.0001898975 
  5303         4997.2689    4997.2689   0.0001885725 
  5125         4988.8971    4988.8971   0.000195122 
  5169         4980.5433    4980.5433   0.000193461 
  5085         4972.9527    4972.2075   0.0001966568 
  5257         4964.6397    4963.8896   0.0001902226 
  5207         4956.3447    4955.5896   0.0001920492 
  5172         4948.4409    4947.3075   0.0001933488 
  5115         4940.1842    4939.0433   0.0001955034 
  5104         4931.9454    4930.7968   0.0001959248 
  4956         4923.7244    4922.5682   0.0002017756 
  5092         4915.5213    4914.3573   0.0001963865 
  5050         4907.336     4906.1641   0.0001980198 
  5073         4899.1685    4897.9886   0.000197122 
  5213         4891.0187    4889.8308   0.0001918281 
  5097         4882.8866    4881.6907   0.0001961938 
  5006         4874.7722    4873.5681   0.0001997603 
  4968         4866.6755    4865.4631   0.0002012882 
  5083         4858.5964    4857.3756   0.0001967342 
  5047         4850.5349    4849.3057   0.0001981375 
  4786         4842.491     4841.2533   0.0002089427 
  4967         4834.4646    4833.2183   0.0002013288 
  5013         4826.4557    4825.2007   0.0001994813 
  4916         4818.4643    4817.2005   0.0002034174 
  4991         4810.4904    4809.2177   0.0002003606 
  4971         4802.5339    4801.2522   0.0002011668 
  5067         4794.5948    4793.304    0.0001973554 
  4940         4786.6731    4785.3731   0.0002024291 
  4999         4778.7687    4777.4595   0.00020004 
  5098         4770.8816    4769.563    0.0001961554 
  4979         4763.0118    4761.6838   0.0002008435 
  4948         4755.1593    4753.8216   0.0002021019 
  4888         4747.324     4745.9767   0.0002045827 
  4936         4739.5059    4738.1488   0.0002025932 
  4998         4731.705     4730.3379   0.00020008 
  4830         4723.9212    4722.5442   0.0002070393 
  5022         4716.1545    4714.7674   0.0001991239 
  4840         4708.4049    4707.0076   0.0002066116 
  4946         4700.6724    4699.2647   0.0002021836 
  4878         4692.9569    4691.5388   0.0002050021 
  4839         4685.2584    4683.8297   0.0002066543 
  4720         4677.5769    4676.1375   0.0002118644 
  4760         4669.9124    4668.4622   0.000210084 
  4794         4662.2648    4660.8036   0.0002085941 
  4740         4654.634     4653.1618   0.0002109705 
  4642         4647.0201    4645.5367   0.0002154244 
  4849         4639.4231    4637.9284   0.0002062281 
  4777         4631.8429    4630.3367   0.0002093364 
  4845         4624.2795    4622.7617   0.0002063983 
  4880         4616.7328    4615.2033   0.000204918 
  4794         4609.2028    4607.6616   0.0002085941 
  4876         4601.6896    4600.1363   0.0002050861 
  4737         4594.193     4592.6276   0.0002111041 
  4935         4586.7131    4585.1355   0.0002026342 
  4718         4579.2498    4577.6598   0.0002119542 
  4863         4571.8031    4570.2005   0.0002056344 
  4802         4564.373     4562.7577   0.0002082466 
  4820         4556.9594    4555.3313   0.0002074689 
  4763         4549.5624    4547.9212   0.0002099517 
  4582         4542.1818    4540.5274   0.0002182453 
  4700         4534.8177    4533.15     0.000212766 
  4708         4527.47      4525.7888   0.0002124044 
  4539         4520.1387    4518.4439   0.0002203128 
  4671         4512.8239    4511.1152   0.0002140869 
  4503         4505.5254    4503.8027   0.0002220742 
  4750         4498.2432    4496.5064   0.0002105263 
  4636         4490.9773    4489.2262   0.0002157032 
  4523         4483.7277    4481.9621   0.0002210922 
  4569         4476.4944    4474.7141   0.0002188663 
  4529         4469.2773    4467.4821   0.0002207993 
  4537         4462.0764    4460.2661   0.00022041 
  4639         4454.8917    4453.0662   0.0002155637 
  4476         4447.7231    4445.8822   0.0002234138 
  4563         4440.5707    4438.7141   0.0002191541 
  4490         4433.4344    4431.5619   0.0002227171 
  4360         4426.3142    4424.4256   0.0002293578 
  4416         4419.21      4417.3052   0.0002264493 
  4492         4412.1218    4410.2006   0.000222618 
  4555         4405.0497    4403.1117   0.000219539 
  4551         4397.9935    4396.0387   0.0002197319 
  4458         4390.9533    4388.9813   0.0002243158 
  4345         4383.9291    4381.9397   0.0002301496 
  4520         4376.9207    4374.9138   0.0002212389 
  4442         4369.9282    4367.9035   0.0002251238 
  4539         4362.9516    4360.9088   0.0002203128 
  4325         4355.9908    4353.9298   0.0002312139 
  4406         4349.0459    4346.9663   0.0002269632 
  4332         4342.1167    4340.0183   0.0002308403 
  4396         4335.2033    4333.0858   0.0002274795 
  4406         4328.3057    4326.1689   0.0002269632 
  4328         4321.4237    4319.2674   0.0002310536 
  4504         4314.5575    4312.3813   0.0002220249 
  4322         4307.7069    4305.5106   0.0002313744 
  4259         4300.872     4298.6553   0.0002347969 
  4420         4294.0528    4291.8153   0.0002262443 
  4269         4287.2491    4284.9907   0.0002342469 
  4354         4280.461     4278.1813   0.0002296739 
  4375         4273.6885    4271.3872   0.0002285714 
  4389         4266.9316    4264.6084   0.0002278423 
  4242         4260.1901    4257.8447   0.0002357379 
  4281         4253.4642    4251.0963   0.0002335903 
  4254         4246.7537    4244.3629   0.0002350729 
  4403         4240.0587    4237.6448   0.0002271179 
  4223         4233.3791    4230.9417   0.0002367985 
  4274         4226.7149    4224.2536   0.0002339729 
  4356         4220.0662    4217.5807   0.0002295684 
  4307         4213.4328    4210.9227   0.0002321802 
  4207         4206.8148    4204.2797   0.0002376991 
  4262         4200.2121    4197.6517   0.0002346316 
  4328         4193.6247    4191.0386   0.0002310536 
  4354         4187.0526    4184.4404   0.0002296739 
  4250         4180.4958    4177.8571   0.0002352941 
  4301         4173.9542    4171.2887   0.0002325041 
  4254         4167.4279    4164.7351   0.0002350729 
  4181         4160.9168    4158.1962   0.0002391772 
  4258         4154.4209    4151.6722   0.000234852 
  4154         4147.9402    4145.1629   0.0002407318 
  4248         4141.4746    4138.6683   0.0002354049 
  4129         4135.0242    4132.1884   0.0002421894 
  4116         4128.589     4125.7232   0.0002429543 
  4223         4122.1688    4119.2726   0.0002367985 
  4167         4115.7638    4112.8366   0.0002399808 
  4157         4109.3738    4106.4152   0.0002405581 
  4169         4102.9989    4100.0083   0.0002398657 
  4203         4096.639     4093.616    0.0002379253 
  4041         4090.2942    4087.2382   0.0002474635 
  4142         4083.9644    4080.8749   0.0002414293 
  4105         4077.6496    4074.526    0.0002436054 
  4207         4071.3498    4068.1915   0.0002376991 
  4123         4065.0649    4061.8714   0.0002425418 
  4095         4058.7951    4055.5657   0.0002442002 
  4158         4052.5402    4049.2744   0.0002405002 
  4233         4046.3002    4042.9973   0.0002362391 
  4061         4040.0751    4036.7346   0.0002462448 
  4063         4033.865     4030.4861   0.0002461236 
  4171         4027.6697    4024.2519   0.0002397507 
  4048         4021.4894    4018.0318   0.0002470356 
  4082         4015.3239    4011.826    0.000244978 
  4024         4009.1733    4005.6343   0.0002485089 
  4083         4003.0376    3999.4567   0.000244918 
  4025         3996.9167    3993.2933   0.0002484472 
  3969         3990.8106    3987.1439   0.0002519526 
  4034         3984.7194    3981.0086   0.0002478929 
  3980         3978.643     3974.8873   0.0002512563 
  3898         3972.5815    3968.78     0.0002565418 
  3927         3966.5347    3962.6867   0.0002546473 
  4023         3960.5028    3956.6073   0.0002485707 
  4039         3954.4857    3950.5419   0.000247586 
  4059         3948.4834    3944.4903   0.0002463661 
  4071         3942.4958    3938.4527   0.0002456399 
  4065         3936.5231    3932.4288   0.0002460025 
  3898         3930.5652    3926.4188   0.0002565418 
  4019         3924.6221    3920.4226   0.0002488181 
  3972         3918.6937    3914.4402   0.0002517623 
  4020         3912.7802    3908.4715   0.0002487562 
  3893         3906.8814    3902.5165   0.0002568713 
  3838         3900.9975    3896.5752   0.0002605524 
  3910         3895.1283    3890.6476   0.0002557545 
  3812         3889.274     3884.7336   0.0002623295 
  3797         3883.4345    3878.8333   0.0002633658 
  3938         3877.6098    3872.9465   0.000253936 
  3936         3871.7999    3867.0733   0.000254065 
  3899         3866.0048    3861.2136   0.000256476 
  3843         3860.2247    3855.3674   0.0002602134 
  3929         3854.4593    3849.5347   0.0002545177 
  3934         3848.7089    3843.7155   0.0002541942 
  3819         3842.9733    3837.9097   0.0002618487 
  3945         3837.2526    3832.1174   0.0002534854 
  3782         3831.5469    3826.3384   0.0002644104 
  3812         3825.8561    3820.5727   0.0002623295 
  3768         3820.1802    3814.8205   0.0002653928 
  3833         3814.5193    3809.0815   0.0002608923 
  3911         3808.8735    3803.3558   0.0002556891 
  3871         3803.2426    3797.6433   0.0002583312 
  3927         3797.6268    3791.9441   0.0002546473 
  3734         3792.0262    3786.2581   0.0002678093 
  3808         3786.4406    3780.5853   0.000262605 
  3806         3780.8702    3774.9257   0.000262743 
  3812         3775.3149    3769.2792   0.0002623295 
  3752         3769.7749    3763.6457   0.0002665245 
  3786         3764.2502    3758.0254   0.000264131 
  3798         3758.7408    3752.4182   0.0002632965 
  3755         3753.2467    3746.8239   0.0002663116 
  3697         3747.7681    3741.2427   0.0002704896 
  3919         3742.3049    3735.6745   0.0002551671 
  3682         3736.8572    3730.1192   0.0002715915 
  3672         3731.4251    3724.5768   0.0002723312 
  3579         3726.0087    3719.0474   0.0002794077 
  3762         3720.6079    3713.5308   0.0002658161 
  3783         3715.2229    3708.0272   0.0002643405 
  3691         3709.8538    3702.5363   0.0002709293 
  3552         3704.5006    3697.0583   0.0002815315 
  3682         3699.1634    3691.593    0.0002715915 
  3687         3693.8423    3686.1405   0.0002712232 
  3758         3688.5374    3680.7008   0.000266099 
  3736         3683.2488    3675.2737   0.000267666 
  3742         3677.9766    3669.8594   0.0002672368 
  3618         3672.7209    3664.4577   0.0002763958 
  3575         3667.4818    3659.0686   0.0002797203 
  3658         3662.2594    3653.6922   0.0002733734 
  3674         3657.0539    3648.3283   0.0002721829 
  3805         3651.8654    3642.9771   0.0002628121 
  3750         3646.694     3637.6383   0.0002666667 
  3818         3641.5399    3632.3121   0.0002619172 
  3760         3636.4033    3626.9984   0.0002659574 
  3679         3631.2843    3621.6972   0.000271813 
  3534         3626.1831    3616.4083   0.0002829655 
  3609         3621.0998    3611.132    0.0002770851 
  3492         3616.0348    3605.868    0.0002863688 
  3534         3610.9881    3600.6164   0.0002829655 
  3550         3605.9601    3595.3771   0.0002816901 
  3519         3600.9509    3590.1502   0.0002841716 
  3537         3595.9608    3584.9355   0.0002827255 
  3652         3590.99      3579.7332   0.0002738226 
  3518         3586.0389    3574.5431   0.0002842524 
  3545         3581.1077    3569.3652   0.0002820874 
  3606         3576.1967    3564.1995   0.0002773156 
  3646         3571.3063    3559.046    0.0002742732 
  3679         3566.4369    3553.9047   0.000271813 
  3417         3561.5887    3548.7755   0.0002926544 
  3445         3556.7621    3543.6584   0.0002902758 
  3471         3551.9577    3538.5535   0.0002881014 
  3422         3547.1758    3533.4605   0.0002922268 
  3452         3542.4168    3528.3796   0.0002896871 
  3506         3537.6814    3523.3108   0.0002852253 
  3476         3532.97      3518.2539   0.000287687 
  3381         3528.2832    3513.209    0.0002957705 
  3403         3523.6216    3508.176    0.0002938584 
  3410         3518.9858    3503.1549   0.0002932551 
  3560         3514.3764    3498.1458   0.0002808989 
  3426         3509.7944    3493.1485   0.0002918856 
  3478         3505.2403    3488.1631   0.0002875216 
  3543         3500.715     3483.1895   0.0002822467 
  3425         3496.2194    3478.2277   0.0002919708 
  3376         3491.7545    3473.2777   0.0002962085 
  3374         3487.3213    3468.3395   0.0002963841 
  3391         3482.9207    3463.413    0.0002948983 
  3386         3478.5541    3458.4982   0.0002953337 
  3342         3474.2226    3453.5951   0.000299222 
  3421         3469.9276    3448.7036   0.0002923122 
  3397         3465.6705    3443.8238   0.0002943774 
  3326         3461.4529    3438.9556   0.0003006615 
  3349         3457.2763    3434.0991   0.0002985966 
  3357         3453.1427    3429.2541   0.000297885 
  3288         3449.0539    3424.4206   0.0003041363 
  3243         3445.012     3419.5987   0.0003083565 
  3418         3441.0193    3414.7882   0.0002925688 
  3279         3437.0783    3409.9893   0.000304971 
  3352         3433.1915    3405.2018   0.0002983294 
  3263         3429.3619    3400.4257   0.0003064664 
  3250         3425.5926    3395.6611   0.0003076923 
  3235         3421.8869    3390.9079   0.000309119 
  3223         3418.2487    3386.166    0.0003102699 
  3326         3414.682     3381.4354   0.0003006615 
  3375         3411.1911    3376.7162   0.0002962963 
  3302         3407.7809    3372.0083   0.0003028468 
  3389         3404.4569    3367.3117   0.0002950723 
  3194         3401.2247    3362.6263   0.000313087 
  3306         3398.0908    3357.9521   0.0003024803 
  3298         3395.0623    3353.2892   0.0003032141 
  3213         3392.1471    3348.6374   0.0003112356 
  3284         3389.3538    3343.9968   0.0003045067 
  3206         3386.692     3339.3674   0.0003119152 
  3329         3384.1723    3334.7491   0.0003003905 
  3208         3381.807     3330.1418   0.0003117207 
  3161         3379.6088    3325.5457   0.0003163556 
  3259         3377.5932    3320.9606   0.0003068426 
  3131         3375.7763    3316.3865   0.0003193868 
  3195         3374.1776    3311.8234   0.000312989 
  3202         3372.8176    3307.2713   0.0003123048 
  3277         3371.7212    3302.7302   0.0003051572 
  3317         3370.9147    3298.2      0.0003014772 
  3359         3370.4299    3293.6807   0.0002977077 
  3412         3370.3028    3289.1724   0.0002930832 
  3311         3370.5733    3284.6749   0.0003020236 
  3421         3371.2898    3280.1882   0.0002923122 
  3347         3372.5055    3275.7124   0.000298775 
  3376         3374.2853    3271.2474   0.0002962085 
  3306         3376.702     3266.7932   0.0003024803 
  3211         3379.8444    3262.3497   0.0003114295 
  3349         3383.8136    3257.917    0.0002985966 
  3320         3388.734     3253.495    0.0003012048 
  3366         3394.7495    3249.0837   0.0002970885 
  3311         3402.0388    3244.6831   0.0003020236 
  3297         3410.8125    3240.2931   0.000303306 
  3483         3421.3351    3235.9138   0.0002871088 
  3387         3433.9248    3231.5451   0.0002952465 
  3423         3448.9847    3227.1869   0.0002921414 
  3445         3467.0226    3222.8394   0.0002902758 
  3447         3488.6767    3218.5024   0.0002901073 
  3551         3514.7843    3214.1759   0.0002816108 
  3585         3546.427     3209.8599   0.00027894 
  3565         3585.0657    3205.5544   0.0002805049 
  3629         3632.6635    3201.2593   0.000275558 
  3626         3691.9791    3196.9747   0.000275786 
  3808         3766.9246    3192.7005   0.000262605 
  3785         3863.3996    3188.4367   0.0002642008 
  3708         3991.3151    3184.1833   0.0002696872 
  3966         4172.9873    3179.9402   0.0002521432 
  3996         4471.6666    3175.7074   0.0002502503 
  4587         5053.4889    3171.485    0.0002180074 
  5068         6243.9753    3167.2728   0.0001973165 
  6300         8481.341     3163.071    0.0001587302 
  8746         12190.5322   3158.8793   0.000114338 
  13046        17876.9572   3154.6979   0.0000766518 
  20514        26501.2076   3150.5267   0.0000487472 
  33242        39588.3706   3146.3657   0.0000300824 
  49854        57531.9223   3142.2148   0.0000200586 
  64679        75248.3172   3138.0741   0.000015461 
  67888        81439.0528   3133.9435   0.0000147301 
  59389        71392.5104   3129.8229   0.0000168381 
  46037        55908.3082   3125.7125   0.0000217217 
  32286        40228.6893   3121.6121   0.0000309732 
  19848        24747.9964   3117.5218   0.0000503829 
  11008        13568.6712   3113.4414   0.000090843 
  6718         7890.9213    3109.3711   0.0001488538 
  5047         5691.1458    3105.3107   0.0001981375 
  4372         4858.1304    3101.2603   0.0002287283 
  4143         4438.5335    3097.2198   0.000241371 
  3997         4164.3578    3093.1892   0.0002501876 
  3963         3966.3369    3089.1685   0.0002523341 
  4007         3817.2338    3085.1577   0.0002495633 
  3968         3701.7094    3081.1567   0.0002520161 
  3820         3610.0995    3077.1656   0.0002617801 
  3761         3535.9682    3073.1842   0.0002658867 
  3580         3474.9465    3069.2127   0.0002793296 
  3396         3423.9344    3065.2509   0.0002944641 
  3386         3380.7208    3061.2988   0.0002953337 
  3347         3343.6602    3057.3565   0.000298775 
  3180         3311.5353    3053.4238   0.0003144654 
  3117         3283.4054    3049.5009   0.0003208213 
  3035         3258.555     3045.5876   0.0003294893 
  3183         3236.4142    3041.6839   0.000314169 
  3105         3216.5399    3037.7899   0.0003220612 
  3075         3198.57      3033.9055   0.0003252033 
  3118         3182.2184    3030.0306   0.0003207184 
  3027         3167.2456    3026.1653   0.0003303601 
  3030         3153.4602    3022.3096   0.000330033 
  3062         3140.6998    3018.4633   0.0003265839 
  3051         3128.8292    3014.6266   0.0003277614 
  3080         3117.7377    3010.7993   0.0003246753 
  3186         3107.3281    3006.9815   0.0003138732 
  3118         3097.5213    3003.1732   0.0003207184 
  2985         3088.2465    2999.3742   0.0003350084 
  3049         3079.446     2995.5847   0.0003279764 
  3018         3071.0672    2991.8045   0.0003313453 
  2966         3063.0671    2988.0337   0.0003371544 
  2987         3055.4062    2984.2722   0.0003347841 
  2992         3048.0517    2980.5201   0.0003342246 
  2863         3040.9735    2976.7772   0.000349284 
  2931         3034.1464    2973.0436   0.0003411805 
  2942         3027.5468    2969.3193   0.0003399048 
  2933         3021.1554    2965.6042   0.0003409478 
  3024         3014.9535    2961.8984   0.0003306878 
  2966         3008.9258    2958.2017   0.0003371544 
  2883         3003.0578    2954.5142   0.0003468609 
  2937         2997.3365    2950.8359   0.0003404835 
  2891         2991.751     2947.1667   0.0003459011 
  2933         2986.2906    2943.5066   0.0003409478 
  2870         2980.9465    2939.8556   0.0003484321 
  2976         2975.71      2936.2137   0.0003360215 
  2831         2970.5738    2932.5809   0.0003532321 
  2833         2965.5308    2928.9571   0.0003529827 
  2989         2960.5752    2925.3423   0.0003345601 
  3035         2955.7008    2921.7365   0.0003294893 
  2814         2950.9029    2918.1397   0.000355366 
  2969         2946.1765    2914.5519   0.0003368137 
  2801         2941.5176    2910.973    0.0003570154 
  2940         2936.9219    2907.403    0.0003401361 
  2870         2932.3861    2903.842    0.0003484321 
  2852         2927.9066    2900.2898   0.0003506311 
  2870         2923.4805    2896.7465   0.0003484321 
  2749         2919.105     2893.212    0.0003637686 
  2829         2914.7773    2889.6864   0.0003534818 
  2823         2910.4952    2886.1695   0.0003542331 
  2910         2906.2564    2882.6615   0.0003436426 
  2859         2902.0588    2879.1622   0.0003497726 
  2830         2897.9005    2875.6717   0.0003533569 
  2727         2893.7798    2872.1899   0.0003667033 
  2874         2889.6949    2868.7168   0.0003479471 
  2839         2885.6445    2865.2524   0.0003522367 
  2861         2881.6268    2861.7967   0.0003495281 
  2752         2877.6408    2858.3496   0.0003633721 
  2724         2873.6851    2854.9112   0.0003671072 
  2918         2869.7586    2851.4814   0.0003427005 
  2768         2865.8601    2848.0601   0.0003612717 
  2850         2861.9886    2844.6475   0.0003508772 
  2834         2858.1432    2841.2434   0.0003528582 
  2766         2854.3231    2837.8479   0.0003615329 
  2882         2850.5273    2834.4608   0.0003469813 
  2819         2846.7549    2831.0823   0.0003547357 
  2751         2843.0054    2827.7123   0.0003635042 
  2746         2839.278     2824.3507   0.0003641661 
  2747         2835.572     2820.9976   0.0003640335 
  2910         2831.8867    2817.6529   0.0003436426 
  2757         2828.2218    2814.3166   0.0003627131 
  2845         2824.5764    2810.9887   0.0003514938 
  2740         2820.9502    2807.6692   0.0003649635 
  2737         2817.3426    2804.358    0.0003653635 
  2742         2813.7531    2801.0551   0.0003646973 
  2745         2810.1814    2797.7606   0.0003642987 
  2681         2806.6269    2794.4744   0.0003729952 
  2832         2803.0893    2791.1964   0.0003531073 
  2808         2799.5682    2787.9267   0.0003561254 
  2840         2796.0633    2784.6653   0.0003521127 
  2727         2792.5741    2781.412    0.0003667033 
  2639         2789.1004    2778.167    0.0003789314 
  2737         2785.6418    2774.9302   0.0003653635 
  2721         2782.1981    2771.7015   0.0003675119 
  2691         2778.7689    2768.481    0.0003716091 
  2757         2775.354     2765.2686   0.0003627131 
  2778         2771.9532    2762.0643   0.0003599712 
  2757         2768.5662    2758.8681   0.0003627131 
  2708         2765.1927    2755.68     0.0003692762 
  2734         2761.8325    2752.5      0.0003657644 
  2686         2758.4854    2749.328    0.0003723008 
  2752         2755.1513    2746.164    0.0003633721 
  2757         2751.8298    2743.008    0.0003627131 
  2743         2748.5209    2739.86     0.0003645643 
  2631         2745.2242    2736.72     0.0003800836 
  2643         2741.9398    2733.5879   0.0003783579 
  2670         2738.6674    2730.4637   0.0003745318 
  2642         2735.4067    2727.3475   0.0003785011 
  2755         2732.1578    2724.2392   0.0003629764 
  2679         2728.9203    2721.1387   0.0003732736 
  2687         2725.6943    2718.0461   0.0003721623 
  2669         2722.4795    2714.9613   0.0003746722 
  2616         2719.2758    2711.8844   0.000382263 
  2564         2716.0831    2708.8153   0.0003900156 
  2827         2712.9013    2705.7539   0.0003537319 
  2620         2709.7302    2702.7004   0.0003816794 
  2695         2706.5697    2699.6545   0.0003710575 
  2613         2703.4198    2696.6165   0.0003827019 
  2610         2700.2802    2693.5861   0.0003831418 
  2679         2697.151     2690.5634   0.0003732736 
  2663         2694.032     2687.5484   0.0003755163 
  2630         2690.9231    2684.5411   0.0003802281 
  2588         2687.8242    2681.5414   0.0003863988 
  2655         2684.7352    2678.5494   0.0003766478 
  2645         2681.6561    2675.565    0.0003780718 
  2699         2678.5867    2672.5881   0.0003705076 
  2702         2675.527     2669.6189   0.0003700962 
  2703         2672.4769    2666.6572   0.0003699593 
  2606         2669.4363    2663.703    0.0003837299 
  2639         2666.4051    2660.7564   0.0003789314 
  2553         2663.3833    2657.8173   0.000391696 
  2628         2660.3708    2654.8856   0.0003805175 
  2676         2657.3675    2651.9615   0.0003736921 
  2591         2654.3734    2649.0447   0.0003859514 
  2658         2651.3883    2646.1355   0.0003762227 
  2614         2648.4123    2643.2336   0.0003825555 
  2614         2645.4452    2640.3392   0.0003825555 
  2591         2642.4871    2637.4521   0.0003859514 
  2610         2639.5378    2634.5724   0.0003831418 
  2675         2636.5973    2631.7001   0.0003738318 
  2666         2633.6655    2628.8351   0.0003750938 
  2598         2630.7423    2625.9774   0.0003849115 
  2581         2627.8279    2623.127    0.0003874467 
  2570         2624.9219    2620.2839   0.0003891051 
  2523         2622.0245    2617.4481   0.0003963535 
  2619         2620.7612    2614.6195   0.0003818251 
  2651         2617.8914    2611.7981   0.0003772161 
  2593         2615.03      2608.984    0.0003856537 
  2569         2612.1771    2606.177    0.0003892565 
  2540         2610.1459    2603.3773   0.0003937008 
  2449         2607.3151    2600.5847   0.0004083299 
  2499         2604.4926    2597.7992   0.0004001601 
  2534         2601.6785    2595.0209   0.000394633 
  2606         2598.8726    2592.2497   0.0003837299 
  2552         2596.0749    2589.4856   0.0003918495 
  2480         2593.2854    2586.7286   0.0004032258 
  2475         2590.5041    2583.9787   0.0004040404 
  2486         2587.731     2581.2358   0.0004022526 
  2592         2584.9659    2578.4999   0.0003858025 
  2532         2582.2088    2575.771    0.0003949447 
  2518         2579.4598    2573.0492   0.0003971406 
  2509         2576.7187    2570.3343   0.0003985652 
  2535         2573.9856    2567.6264   0.0003944773 
  2443         2571.2605    2564.9254   0.0004093328 
  2493         2568.5432    2562.2313   0.0004011231 
  2506         2565.8337    2559.5442   0.0003990423 
  2523         2563.1321    2556.864    0.0003963535 
  2514         2560.4383    2554.1907   0.0003977725 
  2498         2557.7522    2551.5242   0.0004003203 
  2403         2555.0739    2548.8646   0.0004161465 
  2498         2552.4032    2546.2118   0.0004003203 
  2531         2549.7403    2543.5658   0.0003951008 
  2477         2547.085     2540.9266   0.0004037142 
  2478         2544.4373    2538.2942   0.0004035513 
  2495         2541.7972    2535.6686   0.0004008016 
  2514         2539.1647    2533.0497   0.0003977725 
  2525         2536.5397    2530.4376   0.0003960396 
  2532         2533.9223    2527.8322   0.0003949447 
  2536         2531.3123    2525.2335   0.0003943218 
  2391         2528.7098    2522.6414   0.000418235 
  2426         2526.1148    2520.0561   0.0004122012 
  2506         2523.5271    2517.4774   0.0003990423 
  2450         2520.9469    2514.9053   0.0004081633 
  2427         2518.374     2512.3399   0.0004120313 
  2425         2515.8085    2509.7811   0.0004123711 
  2481         2513.2504    2507.2288   0.0004030633 
  2474         2510.6995    2504.6832   0.0004042037 
  2524         2508.1559    2502.1441   0.0003961965 
  2388         2505.6196    2499.6115   0.0004187605 
  2488         2503.0905    2497.0855   0.0004019293 
  2546         2500.5687    2494.566    0.000392773 
  2432         2498.0541    2492.0529   0.0004111842 
  2465         2495.5466    2489.5464   0.0004056795 
  2397         2493.0463    2487.0463   0.0004171882 
  2517         2490.5532    2484.5527   0.0003972984 
  2430         2488.0672    2482.0655   0.0004115226 
  2422         2485.5883    2479.5847   0.0004128819 
  2399         2483.1165    2477.1103   0.0004168404 
  2440         2480.6517    2474.6423   0.0004098361 
  2440         2478.1941    2472.1807   0.0004098361 
  2398         2475.7434    2469.7254   0.0004170142 
  2445         2473.2998    2467.2765   0.000408998 
  2469         2470.8632    2464.8339   0.0004050223 
  2475         2468.4336    2462.3976   0.0004040404 
  2516         2466.0109    2459.9676   0.0003974563 
  2474         2463.5952    2457.5438   0.0004042037 
  2339         2461.1864    2455.1264   0.0004275331 
  2343         2458.7846    2452.7152   0.0004268032 
  2379         2456.3897    2450.3102   0.0004203447 
  2395         2454.0017    2447.9114   0.0004175365 
  2402         2451.6205    2445.5188   0.0004163197 
  2379         2449.2463    2443.1324   0.0004203447 
  2351         2446.8789    2440.7522   0.0004253509 
  2307         2444.5183    2438.3781   0.0004334634 
  2395         2442.1645    2436.0102   0.0004175365 
  2447         2439.8176    2433.6484   0.0004086637 
  2478         2437.4775    2431.2927   0.0004035513 
  2480         2435.1441    2428.9431   0.0004032258 
  2470         2432.8176    2426.5996   0.0004048583 
  2377         2430.4978    2424.2621   0.0004206984 
  2411         2428.1847    2421.9307   0.0004147657 
  2334         2425.8784    2419.6053   0.000428449 
  2355         2423.5788    2417.2859   0.0004246285 
  2347         2421.286     2414.9726   0.0004260758 
  2395         2418.9998    2412.6652   0.0004175365 
  2399         2416.7204    2410.3638   0.0004168404 
  2421         2414.4477    2408.0683   0.0004130525 
  2361         2412.1816    2405.7788   0.0004235493 
  2386         2409.9222    2403.4953   0.0004191115 
  2371         2407.6695    2401.2176   0.000421763 
  2472         2405.4234    2398.9458   0.0004045307 
  2307         2403.184     2396.68     0.0004334634 
  2354         2400.9512    2394.42     0.0004248088 
  2332         2398.725     2392.1658   0.0004288165 
  2382         2396.5055    2389.9175   0.0004198153 
  2426         2394.2926    2387.675    0.0004122012 
  2296         2392.0863    2385.4383   0.0004355401 
  2212         2389.8866    2383.2074   0.0004520796 
  2348         2387.6935    2380.9823   0.0004258944 
  2373         2385.507     2378.763    0.0004214075 
  2351         2383.3271    2376.5494   0.0004253509 
  2319         2381.1538    2374.3415   0.0004312204 
  2288         2378.987     2372.1394   0.0004370629 
  2413         2376.8268    2369.9429   0.0004144219 
  2321         2374.6733    2367.7522   0.0004308488 
  2276         2372.5262    2365.5672   0.0004393673 
  2295         2370.3858    2363.3878   0.0004357298 
  2254         2368.2519    2361.214    0.0004436557 
  2280         2366.1245    2359.0459   0.0004385965 
  2265         2364.0038    2356.8834   0.0004415011 
  2364         2361.8895    2354.7265   0.0004230118 
  2339         2359.7819    2352.5753   0.0004275331 
  2339         2357.6808    2350.4295   0.0004275331 
  2285         2355.5863    2348.2894   0.0004376368 
  2290         2353.4983    2346.1548   0.0004366812 
  2329         2351.4169    2344.0257   0.0004293688 
  2288         2349.342     2341.9022   0.0004370629 
  2362         2347.2738    2339.7841   0.00042337 
  2246         2345.2121    2337.6716   0.000445236 
  2295         2343.1569    2335.5645   0.0004357298 
  2288         2341.1084    2333.4629   0.0004370629 
  2341         2339.0664    2331.3668   0.0004271679 
  2288         2337.031     2329.276    0.0004370629 
  2311         2335.0022    2327.1907   0.0004327131 
  2322         2332.9801    2325.1109   0.0004306632 
  2297         2330.9645    2323.0364   0.0004353505 
  2284         2328.9555    2320.9672   0.0004378284 
  2320         2326.9532    2318.9035   0.0004310345 
  2370         2324.9575    2316.8451   0.0004219409 
  2194         2322.9685    2314.792    0.0004557885 
  2362         2320.9861    2312.7443   0.00042337 
  2317         2319.0103    2310.7018   0.0004315926 
  2247         2317.0413    2308.6647   0.0004450378 
  2343         2315.0789    2306.6329   0.0004268032 
  2256         2313.1233    2304.6063   0.0004432624 
  2221         2311.1744    2302.5849   0.0004502476 
  2275         2309.2322    2300.5689   0.0004395604 
  2234         2307.2968    2298.558    0.0004476276 
  2203         2305.3681    2296.5523   0.0004539265 
  2233         2303.4463    2294.5519   0.000447828 
  2189         2301.5312    2292.5566   0.0004568296 
  2319         2299.623     2290.5665   0.0004312204 
  2190         2297.7217    2288.5816   0.000456621 
  2278         2295.8272    2286.6018   0.0004389816 
  2286         2293.9396    2284.6272   0.0004374453 
  2278         2292.059     2282.6576   0.0004389816 
  2232         2290.1853    2280.6932   0.0004480287 
  2247         2288.3186    2278.7338   0.0004450378 
  2245         2286.459     2276.7796   0.0004454343 
  2237         2284.6064    2274.8304   0.0004470273 
  2271         2282.7608    2272.8862   0.0004403347 
  2255         2280.9224    2270.9471   0.000443459 
  2249         2278.3219    2269.013    0.0004446421 
  2363         2276.5029    2267.0839   0.0004231909 
  2360         2274.6911    2265.1598   0.0004237288 
  2336         2272.5027    2263.2407   0.0004280822 
  2348         2270.7079    2261.3266   0.0004258944 
  2356         2268.9204    2259.4174   0.0004244482 
  2537         2267.1402    2257.5132   0.0003941663 
  2595         2265.3674    2255.6139   0.0003853565 
  2612         2263.6021    2253.7195   0.0003828484 
  2417         2261.8442    2251.8301   0.000413736 
  2300         2260.0938    2249.9455   0.0004347826 
  2348         2258.3511    2248.0658   0.0004258944 
  2275         2256.616     2246.1909   0.0004395604 
  2218         2254.8886    2244.3209   0.0004508566 
  2252         2253.1691    2242.4558   0.0004440497 
  2215         2251.4573    2240.5955   0.0004514673 
  2144         2249.7535    2238.74     0.0004664179 
  2227         2248.0577    2236.8892   0.0004490346 
  2200         2246.37      2235.0433   0.0004545455 
  2212         2244.6904    2233.2022   0.0004520796 
  2122         2243.0191    2231.3658   0.0004712535 
  2292         2241.3561    2229.5341   0.0004363002 
  2313         2239.7016    2227.7072   0.000432339 
  2243         2238.0555    2225.885    0.0004458315 
  2195         2236.4181    2224.0675   0.0004555809 
  2180         2234.7894    2222.2548   0.0004587156 
  2262         2233.1695    2220.4467   0.0004420866 
  2140         2231.5586    2218.6432   0.0004672897 
  2216         2229.9567    2216.8445   0.0004512635 
  2187         2228.364     2215.0504   0.0004572474 
  2122         2226.7806    2213.2609   0.0004712535 
  2229         2225.2067    2211.476    0.0004486317 
  2166         2223.6424    2209.6957   0.0004616805 
  2113         2222.0878    2207.9201   0.0004732608 
  2133         2220.543     2206.149    0.0004688233 
  2240         2219.0083    2204.3825   0.0004464286 
  2152         2217.4838    2202.6205   0.000464684 
  2182         2215.9697    2200.8631   0.0004582951 
  2141         2214.4662    2199.1102   0.0004670715 
  2201         2212.9734    2197.3618   0.0004543389 
  2203         2211.4915    2195.618    0.0004539265 
  2118         2210.0208    2193.8786   0.0004721435 
  2060         2208.5614    2192.1437   0.0004854369 
  2170         2207.1136    2190.4133   0.0004608295 
  2093         2205.6777    2188.6874   0.0004777831 
  2111         2204.2538    2186.9659   0.0004737091 
  2129         2202.8422    2185.2488   0.0004697041 
  2062         2201.4432    2183.5361   0.0004849661 
  2093         2200.0571    2181.8279   0.0004777831 
  2191         2198.6842    2180.124    0.0004564126 
  2118         2197.3248    2178.4246   0.0004721435 
  2120         2195.9791    2176.7295   0.0004716981 
  2192         2194.6476    2175.0387   0.0004562044 
  2117         2193.3306    2173.3524   0.0004723666 
  2172         2192.0285    2171.6703   0.0004604052 
  2078         2190.7416    2169.9926   0.000481232 
  2184         2189.4705    2168.3191   0.0004578755 
  2162         2188.2154    2166.65     0.0004625347 
  2103         2186.9769    2164.9852   0.0004755112 
  2156         2185.7555    2163.3246   0.0004638219 
  2159         2184.5516    2161.6683   0.0004631774 
  2049         2183.3658    2160.0163   0.0004880429 
  2162         2182.1986    2158.3685   0.0004625347 
  2223         2181.0506    2156.7249   0.0004498426 
  2205         2179.9225    2155.0855   0.0004535147 
  2152         2178.8149    2153.4503   0.000464684 
  2120         2177.7285    2151.8193   0.0004716981 
  2147         2176.664     2150.1925   0.0004657662 
  2094         2175.6222    2148.5699   0.0004775549 
  2083         2174.6039    2146.9514   0.0004800768 
  2100         2173.6098    2145.3371   0.0004761905 
  2126         2172.6411    2143.7269   0.0004703669 
  2097         2171.6986    2142.1208   0.0004768717 
  2078         2170.7833    2140.5188   0.000481232 
  2110         2169.8963    2138.9209   0.0004739336 
  2098         2169.0388    2137.3271   0.0004766444 
  2031         2168.2118    2135.7374   0.0004923683 
  2137         2167.4169    2134.1517   0.0004679457 
  2013         2166.6552    2132.5701   0.000496771 
  2175         2165.9282    2130.9926   0.0004597701 
  2049         2165.2376    2129.419    0.0004880429 
  2137         2164.5848    2127.8495   0.0004679457 
  2103         2163.9719    2126.2839   0.0004755112 
  2104         2163.4003    2124.7224   0.0004752852 
  2056         2162.8724    2123.1648   0.0004863813 
  2064         2162.3901    2121.6112   0.0004844961 
  2086         2161.9558    2120.0616   0.0004793864 
  2106         2161.5717    2118.5159   0.0004748338 
  2083         2161.2407    2116.9741   0.0004800768 
  2027         2160.9654    2115.4363   0.0004933399 
  2064         2160.7489    2113.9024   0.0004844961 
  1995         2160.5942    2112.3724   0.0005012531 
  2063         2160.5051    2110.8462   0.000484731 
  2126         2160.485     2109.324    0.0004703669 
  2061         2160.538     2107.8056   0.0004852014 
  2039         2160.6686    2106.291    0.0004904365 
  2041         2160.8811    2104.7804   0.0004899559 
  2067         2161.181     2103.2735   0.0004837929 
  2099         2161.5732    2101.7705   0.0004764173 
  2026         2162.0641    2100.2712   0.0004935834 
  2109         2162.6598    2098.7758   0.0004741584 
  2101         2163.3675    2097.2841   0.0004759638 
  2090         2164.1944    2095.7963   0.0004784689 
  2043         2165.1493    2094.3122   0.0004894763 
  2166         2166.2406    2092.8318   0.0004616805 
  2328         2167.4788    2091.3552   0.0004295533 
  2258         2168.8739    2089.8824   0.0004428698 
  2416         2170.4385    2088.4132   0.0004139073 
  2378         2172.1848    2086.9478   0.0004205214 
  2413         2174.1279    2085.486    0.0004144219 
  2465         2176.2827    2084.028    0.0004056795 
  2359         2178.6673    2082.5736   0.0004239084 
  2358         2181.3002    2081.1229   0.0004240882 
  2400         2184.2033    2079.6758   0.0004166667 
  2335         2187.4002    2078.2324   0.0004282655 
  2316         2190.917     2076.7926   0.0004317789 
  2473         2194.7839    2075.3565   0.0004043672 
  2379         2199.0328    2073.9239   0.0004203447 
  2435         2203.7021    2072.495    0.0004106776 
  2435         2208.8321    2071.0697   0.0004106776 
  2432         2214.4713    2069.6479   0.0004111842 
  2337         2220.6715    2068.2297   0.000427899 
  2349         2227.495     2066.8151   0.0004257131 
  2400         2235.0087    2065.404    0.0004166667 
  2392         2243.294     2063.9964   0.0004180602 
  2401         2252.4389    2062.5924   0.0004164931 
  2305         2262.5505    2061.1919   0.0004338395 
  2380         2273.747     2059.7948   0.0004201681 
  2518         2286.1707    2058.4013   0.0003971406 
  2391         2299.9865    2057.0113   0.000418235 
  2389         2315.3853    2055.6247   0.0004185852 
  2514         2332.5969    2054.2417   0.0003977725 
  2437         2351.8888    2052.862    0.0004103406 
  2569         2373.5887    2051.4858   0.0003892565 
  2588         2398.0796    2050.113    0.0003863988 
  2448         2425.839     2048.7437   0.0004084967 
  2584         2457.4349    2047.3778   0.0003869969 
  2694         2493.5843    2046.0152   0.0003711952 
  2610         2535.1592    2044.6561   0.0003831418 
  2643         2583.2773    2043.3003   0.0003783579 
  2832         2639.3329    2041.9479   0.0003531073 
  2908         2705.1501    2040.5989   0.000343879 
  2979         2783.0724    2039.2532   0.0003356831 
  3145         2876.2482    2037.9109   0.000317965 
  3238         2988.872     2036.5718   0.0003088326 
  3357         3126.7619    2035.2361   0.000297885 
  3441         3298.1026    2033.9037   0.0002906132 
  3595         3514.6912    2032.5746   0.0002781641 
  4059         3794.2763    2031.2488   0.0002463661 
  4554         4165.1348    2029.9263   0.0002195872 
  5203         4681.2265    2028.607    0.0001921968 
  6284         5478.2494    2027.291    0.0001591343 
  8309         6941.8453    2025.9783   0.0001203514 
  11867        10020.7009   2024.6687   0.0000842673 
  18459        16551.2228   2023.3624   0.0000541741 
  31980        29289.7533   2022.0593   0.0000312695 
  55859        51535.104    2020.7595   0.0000179022 
  91191        84260.309    2019.4628   0.000010966 
  124289       118924.391   2018.1693   0.0000080458 
  134930       134031.128   2016.879    0.0000074113 
  116128       117012.1856  2015.5918   0.0000086112 
  92743        92492.1008   2014.3079   0.0000107825 
  79507        80090.8493   2013.027    0.0000125775 
  67748        70046.5345   2011.7493   0.0000147606 
  48086        49936.8595   2010.4747   0.0000207961 
  27524        28324.3466   2009.2033   0.0000363319 
  13559        14626.2464   2007.9349   0.0000737518 
  7760         8490.6235    2006.6697   0.000128866 
  5929         6127.6214    2005.4075   0.0001686625 
  5141         5059.5168    2004.1484   0.0001945147 
  4736         4416.9091    2002.8924   0.0002111486 
  4360         3967.2611    2001.6394   0.0002293578 
  4168         3634.502     2000.3895   0.0002399232 
  4012         3380.3426    1999.1427   0.0002492522 
  3672         3181.5132    1997.8988   0.0002723312 
  3487         3022.768     1996.658    0.0002867795 
  3169         2893.8751    1995.4202   0.000315557 
  3022         2787.6461    1994.1854   0.0003309067 
  2796         2698.9914    1992.9536   0.0003576538 
  2810         2624.1531    1991.7248   0.0003558719 
  2573         2560.3486    1990.4989   0.0003886514 
  2456         2505.4642    1989.276    0.0004071661 
  2532         2457.8711    1988.0561   0.0003949447 
  2385         2416.3018    1986.8391   0.0004192872 
  2352         2379.7449    1985.625    0.0004251701 
  2301         2347.4076    1984.4139   0.0004345937 
  2383         2318.635     1983.2056   0.0004196391 
  2323         2292.9069    1982.0003   0.0004304778 
  2307         2269.7848    1980.7979   0.0004334634 
  2333         2248.9161    1979.5984   0.0004286327 
  2327         2229.9975    1978.4017   0.0004297379 
  2232         2212.7831    1977.208    0.0004480287 
  2299         2197.0577    1976.017    0.0004349717 
  2249         2182.6457    1974.829    0.0004446421 
  2258         2169.3907    1973.6437   0.0004428698 
  2220         2157.1645    1972.4613   0.0004504505 
  2257         2145.852     1971.2818   0.000443066 
  2145         2135.3557    1970.105    0.0004662005 
  2213         2125.5914    1968.9311   0.0004518753 
  2103         2116.4833    1967.7599   0.0004755112 
  2183         2107.9683    1966.5915   0.0004580852 
  2177         2099.9877    1965.4259   0.0004593477 
  2183         2092.4926    1964.2631   0.0004580852 
  2172         2085.4371    1963.103    0.0004604052 
  2209         2078.7832    1961.9457   0.0004526935 
  2157         2072.4943    1960.7912   0.0004636069 
  2193         2066.5404    1959.6393   0.0004559964 
  2199         2060.8922    1958.4902   0.0004547522 
  2097         2055.5259    1957.3438   0.0004768717 
  2156         2050.4177    1956.2001   0.0004638219 
  2190         2045.5484    1955.0591   0.000456621 
  2049         2041.7048    1953.9208   0.0004880429 
  2162         2037.2639    1952.7851   0.0004625347 
  2252         2033.0115    1951.6522   0.0004440497 
  2155         2028.9338    1950.5219   0.0004640371 
  2134         2025.0185    1949.3942   0.0004686036 
  2192         2021.6575    1948.2692   0.0004562044 
  2017         2018.0367    1947.1468   0.0004957858 
  2184         2014.5468    1946.027    0.0004578755 
  2060         2011.1798    1944.9099   0.0004854369 
  2116         2007.9272    1943.7954   0.0004725898 
  2070         2004.7822    1942.6835   0.0004830918 
  2010         2001.7376    1941.5741   0.0004975124 
  2080         1998.7877    1940.4674   0.0004807692 
  1987         1995.9264    1939.3632   0.0005032713 
  2107         1993.1487    1938.2616   0.0004746084 
  2039         1990.4495    1937.1625   0.0004904365 
  2026         1987.8246    1936.066    0.0004935834 
  2114         1985.2695    1934.972    0.0004730369 
  2107         1982.7805    1933.8806   0.0004746084 
  2085         1980.354     1932.7916   0.0004796163 
  2040         1977.9865    1931.7052   0.0004901961 
  2060         1975.675     1930.6213   0.0004854369 
  2119         1973.4165    1929.5399   0.0004719207 
  2074         1971.2085    1928.461    0.0004821601 
  2036         1969.0481    1927.3845   0.0004911591 
  2091         1966.9333    1926.3106   0.0004782401 
  2102         1964.8616    1925.239    0.0004757374 
  2065         1962.8311    1924.17     0.0004842615 
  2010         1960.8397    1923.1034   0.0004975124 
  2096         1958.8858    1922.0392   0.0004770992 
  1972         1956.9674    1920.9774   0.0005070994 
  1991         1955.0832    1919.9181   0.0005022602 
  2068         1953.2314    1918.8612   0.000483559 
  2099         1951.4108    1917.8067   0.0004764173 
  2030         1949.6199    1916.7546   0.0004926108 
  2004         1947.8575    1915.7049   0.000499002 
  1953         1946.1224    1914.6575   0.0005120328 
  1967         1944.4134    1913.6125   0.0005083884 
  1998         1942.7296    1912.5699   0.0005005005 
  2074         1941.0698    1911.5296   0.0004821601 
  2065         1939.4333    1910.4917   0.0004842615 
  2027         1937.8189    1909.4562   0.0004933399 
  1976         1936.226     1908.4229   0.0005060729 
  2014         1934.6536    1907.392    0.0004965243 
  1978         1933.1011    1906.3634   0.0005055612 
  2037         1931.5677    1905.3371   0.000490918 
  2046         1930.0527    1904.3131   0.0004887586 
  2016         1928.5554    1903.2913   0.0004960317 
  1913         1927.0753    1902.2719   0.0005227392 
  1956         1925.6117    1901.2547   0.0005112474 
  2022         1924.1642    1900.2398   0.0004945598 
  1992         1922.732     1899.2272   0.000502008 
  2041         1921.3148    1898.2168   0.0004899559 
  1945         1919.9121    1897.2087   0.0005141388 
  1956         1918.5234    1896.2027   0.0005112474 
  1861         1917.1482    1895.1991   0.0005373455 
  2008         1915.7861    1894.1976   0.000498008 
  2013         1914.4369    1893.1983   0.000496771 
  2020         1913.0999    1892.2013   0.0004950495 
  2069         1911.7749    1891.2064   0.0004833253 
  2088         1910.4615    1890.2137   0.0004789272 
  2061         1909.1595    1889.2232   0.0004852014 
  2040         1907.8684    1888.2349   0.0004901961 
  2050         1906.588     1887.2487   0.0004878049 
  2067         1905.318     1886.2647   0.0004837929 
  2020         1904.0581    1885.2829   0.0004950495 
  1960         1902.808     1884.3032   0.0005102041 
  1940         1901.5676    1883.3256   0.0005154639 
  1803         1900.3364    1882.3501   0.0005546312 
  1944         1899.1143    1881.3768   0.0005144033 
  1992         1897.9011    1880.4055   0.000502008 
  1921         1896.6966    1879.4364   0.0005205622 
  1900         1895.5005    1878.4694   0.0005263158 
  1957         1894.3126    1877.5044   0.0005109862 
  1911         1893.1328    1876.5416   0.0005232862 
  1884         1891.9608    1875.5808   0.0005307856 
  1956         1890.7965    1874.622    0.0005112474 
  1972         1889.6398    1873.6654   0.0005070994 
  1920         1888.4904    1872.7107   0.0005208333 
  1894         1887.3481    1871.7582   0.0005279831 
  1958         1886.213     1870.8076   0.0005107252 
  1938         1885.0847    1869.8591   0.0005159959 
  1866         1883.9631    1868.9126   0.0005359057 
  1874         1882.8482    1867.9681   0.0005336179 
  1949         1881.7398    1867.0256   0.0005130836 
  1921         1880.6377    1866.0851   0.0005205622 
  1931         1879.5419    1865.1466   0.0005178664 
  1871         1878.4522    1864.2101   0.0005344735 
  1891         1877.3685    1863.2756   0.0005288207 
  1932         1876.2907    1862.343    0.0005175983 
  1883         1875.2187    1861.4124   0.0005310674 
  1823         1874.1524    1860.4838   0.0005485464 
  1919         1873.0917    1859.5571   0.0005211047 
  1942         1872.0365    1858.6323   0.0005149331 
  1941         1870.9867    1857.7095   0.0005151984 
  1928         1869.9423    1856.7885   0.0005186722 
  1870         1868.903     1855.8696   0.0005347594 
  1867         1867.869     1854.9525   0.0005356186 
  1872         1866.84      1854.0373   0.000534188 
  1862         1865.8161    1853.124    0.0005370569 
  1940         1864.7971    1852.2126   0.0005154639 
  1923         1863.7829    1851.3031   0.0005200208 
  1880         1862.7736    1850.3955   0.0005319149 
  1931         1861.7689    1849.4897   0.0005178664 
  1862         1860.769     1848.5858   0.0005370569 
  1835         1859.7736    1847.6838   0.0005449591 
  1852         1858.7829    1846.7836   0.0005399568 
  1848         1857.7965    1845.8852   0.0005411255 
  1800         1856.8147    1844.9887   0.0005555556 
  1762         1855.8372    1844.094    0.0005675369 
  1919         1854.8641    1843.2011   0.0005211047 
  1916         1853.8952    1842.3101   0.0005219207 
  1890         1852.9306    1841.4208   0.0005291005 
  1868         1851.9702    1840.5334   0.0005353319 
  1973         1851.0139    1839.6477   0.0005068424 
  1957         1850.0618    1838.7638   0.0005109862 
  2056         1849.1137    1837.8817   0.0004863813 
  2031         1848.1696    1837.0014   0.0004923683 
  2005         1847.2295    1836.1228   0.0004987531 
  1974         1846.2934    1835.246    0.0005065856 
  1824         1845.3612    1834.3709   0.0005482456 
  1807         1844.433     1833.4976   0.0005534034 
  1844         1843.5085    1832.6261   0.0005422993 
  1889         1842.5879    1831.7562   0.0005293806 
  1821         1841.6711    1830.8881   0.0005491488 
  1897         1840.7581    1830.0217   0.0005271481 
  1822         1839.8488    1829.157    0.0005488474 
  1850         1838.9432    1828.294    0.0005405405 
  1882         1838.0414    1827.4327   0.0005313496 
  1831         1837.1432    1826.5731   0.0005461496 
  1811         1836.2487    1825.7152   0.0005521811 
  1838         1835.3578    1824.859    0.0005440696 
  1865         1834.4705    1824.0044   0.000536193 
  1802         1833.5869    1823.1516   0.000554939 
  1782         1832.7068    1822.3003   0.0005611672 
  1821         1831.8303    1821.4507   0.0005491488 
  1876         1830.9574    1820.6028   0.000533049 
  1772         1830.088     1819.7565   0.0005643341 
  1849         1829.2222    1818.9118   0.0005408329 
  1858         1828.3598    1818.0688   0.0005382131 
  1873         1827.501     1817.2274   0.0005339028 
  1850         1826.6457    1816.3876   0.0005405405 
  1815         1825.794     1815.5494   0.0005509642 
  1746         1824.9457    1814.7128   0.0005727377 
  1896         1824.1009    1813.8778   0.0005274262 
  1756         1823.2596    1813.0444   0.0005694761 
  1789         1822.4218    1812.2126   0.0005589715 
  1843         1821.5875    1811.3823   0.0005425936 
  1793         1820.7567    1810.5536   0.0005577245 
  1780         1819.9294    1809.7265   0.0005617978 
  1815         1819.1055    1808.901    0.0005509642 
  1823         1818.2852    1808.077    0.0005485464 
  1784         1817.4684    1807.2545   0.0005605381 
  1765         1816.6552    1806.4336   0.0005665722 
  1800         1815.8454    1805.6142   0.0005555556 
  1807         1815.0392    1804.7963   0.0005534034 
  1828         1814.2366    1803.9799   0.000547046 
  1829         1813.4375    1803.1651   0.0005467469 
  1781         1812.642     1802.3518   0.0005614823 
  1751         1811.8501    1801.54     0.0005711022 
  1790         1811.0618    1800.7296   0.0005586592 
  1751         1810.2772    1799.9208   0.0005711022 
  1789         1809.4962    1799.1134   0.0005589715 
  1829         1808.7189    1798.3076   0.0005467469 
  1775         1807.9453    1797.5031   0.0005633803 
  1741         1807.1755    1796.7002   0.0005743825 
  1801         1806.4094    1795.8987   0.0005552471 
  1744         1805.6471    1795.0987   0.0005733945 
  1766         1804.8886    1794.3001   0.0005662514 
  1754         1804.134     1793.503    0.0005701254 
  1739         1803.3833    1792.7073   0.0005750431 
  1788         1802.6365    1791.913    0.0005592841 
  1825         1801.8938    1791.1201   0.0005479452 
  1698         1801.155     1790.3287   0.0005889282 
  1778         1800.4203    1789.5387   0.0005624297 
  1804         1799.6898    1788.7501   0.0005543237 
  1734         1798.9634    1787.9629   0.0005767013 
  1729         1798.2412    1787.177    0.000578369 
  1752         1797.5234    1786.3926   0.0005707763 
  1725         1796.8098    1785.6096   0.0005797101 
  1743         1796.1007    1784.8279   0.0005737235 
  1730         1795.3961    1784.0476   0.0005780347 
  1732         1794.696     1783.2687   0.0005773672 
  1716         1794.0006    1782.4911   0.0005827506 
  1719         1793.3098    1781.7149   0.0005817336 
  1742         1792.6238    1780.94     0.0005740528 
  1663         1791.9428    1780.1665   0.0006013229 
  1759         1791.2666    1779.3943   0.0005685048 
  1755         1790.5956    1778.6235   0.0005698006 
  1705         1789.9297    1777.8539   0.0005865103 
  1735         1789.269     1777.0857   0.0005763689 
  1752         1788.6138    1776.3188   0.0005707763 
  1820         1787.964     1775.5532   0.0005494505 
  1704         1787.3198    1774.789    0.0005868545 
  1807         1786.6814    1774.026    0.0005534034 
  1751         1786.0489    1773.2643   0.0005711022 
  1788         1785.4223    1772.5039   0.0005592841 
  1700         1784.802     1771.7448   0.0005882353 
  1709         1784.1879    1770.987    0.0005851375 
  1678         1783.5804    1770.2304   0.0005959476 
  1692         1782.9795    1769.4751   0.0005910165 
  1735         1782.3855    1768.721    0.0005763689 
  1646         1781.7985    1767.9682   0.0006075334 
  1739         1781.2187    1767.2167   0.0005750431 
  1670         1780.6463    1766.4664   0.0005988024 
  1741         1780.0817    1765.7174   0.0005743825 
  1646         1779.5249    1764.9695   0.0006075334 
  1719         1778.9762    1764.2229   0.0005817336 
  1803         1778.436     1763.4776   0.0005546312 
  1694         1777.9045    1762.7334   0.0005903188 
  1726         1777.3819    1761.9905   0.0005793743 
  1704         1776.8686    1761.2487   0.0005868545 
  1730         1776.3649    1760.5082   0.0005780347 
  1640         1775.8711    1759.7689   0.0006097561 
  1712         1775.3876    1759.0307   0.0005841121 
  1694         1774.9148    1758.2938   0.0005903188 
  1722         1774.4531    1757.558    0.0005807201 
  1752         1774.0028    1756.8234   0.0005707763 
  1736         1773.5645    1756.0899   0.0005760369 
  1713         1773.1386    1755.3577   0.0005837712 
  1665         1772.7257    1754.6266   0.0006006006 
  1722         1772.3262    1753.8966   0.0005807201 
  1748         1771.9407    1753.1678   0.0005720824 
  1787         1771.5698    1752.4402   0.0005595971 
  1735         1771.2142    1751.7136   0.0005763689 
  1714         1770.8745    1750.9883   0.0005834306 
  1763         1770.5514    1750.264    0.000567215 
  1689         1770.2458    1749.5409   0.0005920663 
  1704         1769.9584    1748.8189   0.0005868545 
  1742         1769.6902    1748.098    0.0005740528 
  1713         1769.442     1747.3782   0.0005837712 
  1711         1769.2148    1746.6595   0.0005844535 
  1725         1769.0097    1745.9419   0.0005797101 
  1683         1768.8278    1745.2254   0.0005941771 
  1662         1768.6703    1744.51     0.0006016847 
  1714         1768.5386    1743.7957   0.0005834306 
  1785         1768.434     1743.0825   0.0005602241 
  1756         1768.358     1742.3703   0.0005694761 
  1696         1768.3123    1741.6592   0.0005896226 
  1717         1768.2984    1740.9492   0.0005824112 
  1771         1768.3185    1740.2403   0.0005646527 
  1842         1768.3742    1739.5324   0.0005428882 
  1803         1768.468     1738.8255   0.0005546312 
  1872         1768.602     1738.1197   0.000534188 
  1821         1768.7789    1737.4149   0.0005491488 
  1868         1769.0013    1736.7112   0.0005353319 
  1827         1769.2722    1736.0085   0.0005473454 
  1806         1769.5948    1735.3068   0.0005537099 
  1866         1769.9726    1734.6062   0.0005359057 
  1797         1770.4095    1733.9066   0.000556483 
  1796         1770.9094    1733.2079   0.0005567929 
  1815         1771.477     1732.5103   0.0005509642 
  1827         1772.1172    1731.8137   0.0005473454 
  1870         1772.8354    1731.1181   0.0005347594 
  1870         1773.6375    1730.4235   0.0005347594 
  1708         1774.5301    1729.7299   0.0005854801 
  1779         1775.5202    1729.0373   0.0005621135 
  1884         1776.616     1728.3456   0.0005307856 
  1821         1777.8259    1727.6549   0.0005491488 
  1788         1779.1599    1726.9652   0.0005592841 
  1838         1779.0755    1726.2765   0.0005440696 
  1857         1780.7006    1725.5887   0.000538503 
  1811         1782.4857    1724.9019   0.0005521811 
  1822         1784.4453    1724.216    0.0005488474 
  1707         1785.8207    1723.5311   0.0005858231 
  1851         1788.1868    1722.8471   0.0005402485 
  1821         1790.7842    1722.1641   0.0005491488 
  1834         1793.6364    1721.482    0.0005452563 
  1778         1796.7708    1720.8008   0.0005624297 
  1900         1800.2175    1720.1206   0.0005263158 
  1801         1804.0122    1719.4413   0.0005552471 
  1809         1808.1943    1718.7629   0.0005527916 
  1812         1812.8104    1718.0854   0.0005518764 
  1845         1817.9131    1717.4088   0.0005420054 
  1837         1823.5645    1716.7331   0.0005443658 
  1877         1829.8354    1716.0584   0.0005327651 
  1863         1836.8111    1715.3845   0.0005367687 
  1855         1844.5882    1714.7115   0.0005390836 
  1877         1853.2845    1714.0394   0.0005327651 
  1893         1863.0389    1713.3682   0.000528262 
  1886         1874.0161    1712.6979   0.0005302227 
  1883         1886.4173    1712.0284   0.0005310674 
  1950         1900.4836    1711.3598   0.0005128205 
  1932         1916.514     1710.6921   0.0005175983 
  1969         1934.8727    1710.0252   0.000507872 
  1973         1956.0196    1709.3592   0.0005068424 
  2050         1980.5272    1708.6941   0.0004878049 
  2096         2009.1325    1708.0298   0.0004770992 
  2121         2042.7774    1707.3663   0.0004714757 
  2222         2082.7058    1706.7037   0.000450045 
  2320         2130.5578    1706.042    0.0004310345 
  2446         2188.5702    1705.381    0.0004088307 
  2519         2259.8117    1704.7209   0.0003969829 
  2589         2348.6456    1704.0616   0.0003862495 
  2733         2461.3717    1703.4032   0.0003658983 
  2941         2607.4711    1702.7455   0.0003400204 
  3190         2801.8627    1702.0887   0.0003134796 
  3710         3070.7657    1701.4327   0.0002695418 
  4145         3473.5712    1700.7774   0.0002412545 
  5220         4179.6665    1700.123    0.0001915709 
  7739         5667.2026    1699.4694   0.0001292157 
  12078        9047.0089    1698.8166   0.0000827952 
  20664        16199.4952   1698.1645   0.0000483933 
  35544        28654.028    1697.5133   0.0000281341 
  53844        44597.9174   1696.8628   0.0000185722 
  65894        55661.0416   1696.2131   0.0000151759 
  60119        51858.9035   1695.5642   0.0000166337 
  45335        38519.9561   1694.916    0.000022058 
  34382        30181.7132   1694.2686   0.000029085 
  33328        30019.8214   1693.622    0.0000300048 
  34636        31112.4974   1692.9761   0.0000288717 
  29011        25871.2117   1692.331    0.0000344697 
  19103        16511.4241   1691.6867   0.0000523478 
  10209        9223.3609    1691.043    0.0000979528 
  5905         5466.153     1690.4002   0.000169348 
  4356         3928.3049    1689.758    0.0002295684 
  3824         3278.1305    1689.1166   0.0002615063 
  3555         2922.4321    1688.476    0.000281294 
  3372         2684.1311    1687.836    0.0002965599 
  3340         2510.8167    1687.1968   0.0002994012 
  3326         2379.8501    1686.5583   0.0003006615 
  3310         2278.2002    1685.9205   0.0003021148 
  3233         2197.5576    1685.2834   0.0003093102 
  3095         2132.3974    1684.6471   0.0003231018 
  3081         2078.9132    1684.0114   0.0003245699 
  2896         2034.4149    1683.3765   0.0003453039 
  2840         1996.9528    1682.7422   0.0003521127 
  2705         1965.0791    1682.1087   0.0003696858 
  2463         1937.7081    1681.4758   0.0004060089 
  2468         1914.0063    1680.8436   0.0004051864 
  2286         1893.3264    1680.2121   0.0004374453 
  2198         1875.1587    1679.5813   0.0004549591 
  2142         1859.0974    1678.9512   0.0004668534 
  2070         1844.8161    1678.3217   0.0004830918 
  2029         1832.0496    1677.6929   0.0004928536 
  1953         1820.5808    1677.0648   0.0005120328 
  1919         1810.2302    1676.4373   0.0005211047 
  1822         1800.8487    1675.8105   0.0005488474 
  1826         1792.311     1675.1843   0.0005476451 
  1814         1784.512     1674.5588   0.0005512679 
  1847         1777.3622    1673.934    0.0005414185 
  1705         1770.7855    1673.3098   0.0005865103 
  1749         1764.7166    1672.6862   0.0005717553 
  1814         1759.0997    1672.0633   0.0005512679 
  1767         1753.8853    1671.441    0.000565931 
  1753         1749.0323    1670.8193   0.0005704507 
  1750         1744.5032    1670.1983   0.0005714286 
  1727         1740.266     1669.5779   0.0005790388 
  1672         1736.2925    1668.9581   0.0005980861 
  1640         1732.5576    1668.3389   0.0006097561 
  1685         1729.0396    1667.7204   0.0005934718 
  1724         1725.7187    1667.1024   0.0005800464 
  1743         1722.5776    1666.4851   0.0005737235 
  1654         1719.6009    1665.8684   0.0006045949 
  1812         1716.7747    1665.2523   0.0005518764 
  1734         1714.0865    1664.6367   0.0005767013 
  1700         1711.5253    1664.0218   0.0005882353 
  1665         1709.0811    1663.4075   0.0006006006 
  1730         1706.7447    1662.7937   0.0005780347 
  1706         1704.5079    1662.1805   0.0005861665 
  1662         1702.3635    1661.568    0.0006016847 
  1690         1700.3045    1660.956    0.000591716 
  1769         1698.3249    1660.3445   0.0005652911 
  1653         1696.419     1659.7337   0.0006049607 
  1705         1694.5819    1659.1234   0.0005865103 
  1686         1692.8088    1658.5137   0.0005931198 
  1697         1691.0955    1657.9045   0.0005892752 
  1663         1689.438     1657.2959   0.0006013229 
  1656         1687.8328    1656.6879   0.0006038647 
  1677         1686.2766    1656.0804   0.0005963029 
  1665         1684.7663    1655.4735   0.0006006006 
  1762         1683.299     1654.8671   0.0005675369 
  1730         1681.8723    1654.2613   0.0005780347 
  1713         1680.4837    1653.656    0.0005837712 
  1683         1679.131     1653.0512   0.0005941771 
  1717         1677.8121    1652.447    0.0005824112 
  1701         1676.5252    1651.8433   0.0005878895 
  1687         1675.2683    1651.2402   0.0005927682 
  1661         1674.04      1650.6375   0.000602047 
  1646         1672.8386    1650.0354   0.0006075334 
  1621         1671.6628    1649.4338   0.0006169031 
  1613         1670.5111    1648.8328   0.0006199628 
  1574         1669.3824    1648.2322   0.000635324 
  1651         1668.2754    1647.6322   0.0006056935 
  1594         1667.1892    1647.0327   0.0006273526 
  1605         1666.1226    1646.4336   0.000623053 
  1702         1665.0747    1645.8351   0.0005875441 
  1674         1664.0446    1645.2371   0.0005973716 
  1650         1663.0316    1644.6396   0.0006060606 
  1635         1662.0346    1644.0426   0.0006116208 
  1725         1661.0532    1643.446    0.0005797101 
  1744         1660.0864    1642.85     0.0005733945 
  1673         1659.1338    1642.2544   0.0005977286 
  1632         1658.1946    1641.6594   0.0006127451 
  1673         1657.2683    1641.0648   0.0005977286 
  1557         1656.3543    1640.4707   0.0006422608 
  1534         1655.4521    1639.877    0.0006518905 
  1594         1654.5612    1639.2839   0.0006273526 
  1605         1653.6812    1638.6912   0.000623053 
  1622         1652.8116    1638.099    0.0006165228 
  1648         1651.9519    1637.5072   0.0006067961 
  1580         1651.1019    1636.9159   0.0006329114 
  1623         1650.2611    1636.3251   0.0006161429 
  1648         1649.4292    1635.7347   0.0006067961 
  1622         1648.6058    1635.1448   0.0006165228 
  1595         1647.7906    1634.5553   0.0006269592 
  1623         1646.9833    1633.9663   0.0006161429 
  1627         1646.1837    1633.3777   0.0006146281 
  1578         1645.3914    1632.7896   0.0006337136 
  1681         1644.6063    1632.2019   0.000594884 
  1559         1643.8279    1631.6146   0.0006414368 
  1609         1643.0562    1631.0278   0.000621504 
  1605         1642.2909    1630.4414   0.000623053 
  1638         1641.5318    1629.8554   0.0006105006 
  1536         1640.7787    1629.2699   0.0006510417 
  1519         1640.0313    1628.6848   0.0006583278 
  1560         1639.2896    1628.1001   0.0006410256 
  1655         1638.5533    1627.5159   0.0006042296 
  1555         1637.8222    1626.932    0.0006430868 
  1664         1637.0963    1626.3486   0.0006009615 
  1586         1636.3753    1625.7656   0.000630517 
  1536         1635.6591    1625.183    0.0006510417 
  1649         1634.9476    1624.6008   0.0006064281 
  1573         1634.2406    1624.019    0.0006357279 
  1534         1633.538     1623.4376   0.0006518905 
  1518         1632.8398    1622.8567   0.0006587615 
  1609         1632.1457    1622.2761   0.000621504 
  1580         1631.4557    1621.6959   0.0006329114 
  1627         1630.7696    1621.1161   0.0006146281 
  1669         1630.0874    1620.5367   0.0005991612 
  1575         1629.409     1619.9577   0.0006349206 
  1565         1628.7342    1619.3791   0.0006389776 
  1575         1628.063     1618.8008   0.0006349206 
  1527         1627.3954    1618.223    0.0006548788 
  1577         1626.7311    1617.6455   0.0006341154 
  1604         1626.0702    1617.0684   0.0006234414 
  1523         1625.4126    1616.4917   0.0006565988 
  1544         1624.7582    1615.9153   0.0006476684 
  1541         1624.1069    1615.3393   0.0006489293 
  1590         1623.4587    1614.7637   0.0006289308 
  1487         1622.8135    1614.1885   0.000672495 
  1564         1622.1713    1613.6136   0.0006393862 
  1562         1621.532     1613.0391   0.0006402049 
  1525         1620.8955    1612.4649   0.0006557377 
  1565         1620.2618    1611.8911   0.0006389776 
  1534         1619.6309    1611.3177   0.0006518905 
  1556         1619.0027    1610.7446   0.0006426735 
  1595         1618.3772    1610.1718   0.0006269592 
  1487         1617.7543    1609.5994   0.000672495 
  1551         1617.1339    1609.0274   0.0006447453 
  1554         1616.5162    1608.4557   0.0006435006 
  1523         1615.9009    1607.8843   0.0006565988 
  1554         1615.2882    1607.3133   0.0006435006 
  1498         1614.6779    1606.7426   0.0006675567 
  1563         1614.07      1606.1723   0.0006397953 
  1563         1613.4645    1605.6022   0.0006397953 
  1549         1612.8615    1605.0326   0.0006455778 
  1578         1612.2607    1604.4632   0.0006337136 
  1511         1611.6623    1603.8942   0.0006618134 
  1610         1611.0663    1603.3255   0.000621118 
  1549         1610.4725    1602.7571   0.0006455778 
  1546         1609.881     1602.189    0.0006468305 
  1516         1609.2918    1601.6213   0.0006596306 
  1555         1608.7049    1601.0539   0.0006430868 
  1435         1608.1202    1600.4868   0.0006968641 
  1574         1607.5377    1599.92     0.000635324 
  1468         1606.9575    1599.3535   0.0006811989 
  1476         1606.3795    1598.7873   0.0006775068 
  1561         1605.8037    1598.2215   0.000640615 
  1514         1605.2301    1597.6559   0.000660502 
  1489         1604.6588    1597.0907   0.0006715917 
  1543         1604.0896    1596.5257   0.0006480881 
  1602         1603.5227    1595.9611   0.0006242197 
  1491         1602.9581    1595.3967   0.0006706908 
  1500         1602.3956    1594.8327   0.0006666667 
  1503         1601.8354    1594.2689   0.000665336 
  1506         1601.2775    1593.7055   0.0006640106 
  1524         1600.7218    1593.1423   0.000656168 
  1519         1600.1684    1592.5794   0.0006583278 
  1491         1599.6173    1592.0168   0.0006706908 
  1519         1599.0685    1591.4545   0.0006583278 
  1512         1598.522     1590.8924   0.0006613757 
  1418         1597.9778    1590.3307   0.0007052186 
  1498         1597.4361    1589.7692   0.0006675567 
  1505         1596.8967    1589.208    0.0006644518 
  1458         1596.3597    1588.6471   0.0006858711 
  1493         1595.8252    1588.0865   0.0006697924 
  1497         1595.2931    1587.5261   0.0006680027 
  1501         1594.7636    1586.966    0.0006662225 
  1547         1594.2366    1586.4062   0.0006464124 
  1429         1593.7122    1585.8466   0.0006997901 
  1493         1593.1905    1585.2873   0.0006697924 
  1465         1592.6714    1584.7283   0.0006825939 
  1482         1592.155     1584.1695   0.0006747638 
  1510         1591.6414    1583.611    0.0006622517 
  1453         1591.1306    1583.0528   0.0006882312 
  1474         1590.6227    1582.4948   0.0006784261 
  1548         1590.1177    1581.9371   0.0006459948 
  1512         1589.6157    1581.3796   0.0006613757 
  1491         1589.1167    1580.8224   0.0006706908 
  1429         1588.6209    1580.2654   0.0006997901 
  1590         1588.1283    1579.7087   0.0006289308 
  1501         1587.639     1579.1522   0.0006662225 
  1468         1587.153     1578.5959   0.0006811989 
  1502         1586.6705    1578.04     0.000665779 
  1453         1586.1915    1577.4842   0.0006882312 
  1481         1585.7162    1576.9287   0.0006752194 
  1524         1585.2445    1576.3734   0.000656168 
  1509         1584.7768    1575.8184   0.0006626905 
  1428         1584.313     1575.2636   0.0007002801 
  1513         1583.8532    1574.7091   0.0006609385 
  1511         1583.3976    1574.1548   0.0006618134 
  1522         1582.9464    1573.6007   0.0006570302 
  1472         1582.4996    1573.0468   0.0006793478 
  1431         1582.0574    1572.4932   0.000698812 
  1571         1581.62      1571.9398   0.0006365372 
  1523         1581.1876    1571.3866   0.0006565988 
  1528         1580.7602    1570.8337   0.0006544503 
  1582         1580.3381    1570.281    0.0006321113 
  1591         1579.9215    1569.7285   0.0006285355 
  1578         1579.5105    1569.1762   0.0006337136 
  1629         1579.1055    1568.6241   0.0006138735 
  1602         1578.7065    1568.0723   0.0006242197 
  1580         1578.314     1567.5207   0.0006329114 
  1489         1577.928     1566.9693   0.0006715917 
  1599         1577.5489    1566.4181   0.0006253909 
  1500         1577.177     1565.8671   0.0006666667 
  1466         1576.8125    1565.3163   0.0006821282 
  1467         1576.4558    1564.7657   0.0006816633 
  1528         1576.1073    1564.2154   0.0006544503 
  1504         1575.7672    1563.6653   0.0006648936 
  1464         1575.436     1563.1153   0.0006830601 
  1436         1575.114     1562.5656   0.0006963788 
  1517         1574.8018    1562.016    0.0006591958 
  1549         1574.4998    1561.4667   0.0006455778 
  1524         1574.2084    1560.9176   0.000656168 
  1476         1573.9281    1560.3687   0.0006775068 
  1560         1573.6596    1559.8199   0.0006410256 
  1579         1573.4034    1559.2714   0.0006333122 
  1568         1573.1603    1558.723    0.0006377551 
  1589         1572.9306    1558.1749   0.0006293266 
  1547         1572.7154    1557.627    0.0006464124 
  1487         1572.5154    1557.0792   0.000672495 
  1493         1572.3313    1556.5316   0.0006697924 
  1566         1572.164     1555.9842   0.0006385696 
  1521         1572.0147    1555.4371   0.0006574622 
  1529         1571.8842    1554.8901   0.0006540222 
  1534         1571.7736    1554.3432   0.0006518905 
  1472         1571.6842    1553.7966   0.0006793478 
  1605         1571.6173    1553.2502   0.000623053 
  1521         1571.5743    1552.7039   0.0006574622 
  1539         1571.5564    1552.1578   0.0006497726 
  1499         1571.5657    1551.6119   0.0006671114 
  1461         1571.6037    1551.0662   0.0006844627 
  1512         1571.6724    1550.5206   0.0006613757 
  1529         1571.7737    1549.9753   0.0006540222 
  1527         1571.9101    1549.4301   0.0006548788 
  1557         1572.084     1548.885    0.0006422608 
  1534         1572.298     1548.3402   0.0006518905 
  1546         1572.5549    1547.7955   0.0006468305 
  1508         1572.8583    1547.251    0.00066313 
  1457         1573.2114    1546.7067   0.0006863418 
  1539         1573.6183    1546.1625   0.0006497726 
  1571         1574.0828    1545.6186   0.0006365372 
  1581         1574.6102    1545.0747   0.0006325111 
  1461         1575.2053    1544.5311   0.0006844627 
  1524         1575.8736    1543.9876   0.000656168 
  1477         1576.6221    1543.4443   0.0006770481 
  1566         1577.4574    1542.9011   0.0006385696 
  1548         1578.3875    1542.3581   0.0006459948 
  1532         1579.4207    1541.8153   0.0006527415 
  1576         1580.5676    1541.2726   0.0006345178 
  1552         1581.8388    1540.7301   0.0006443299 
  1521         1583.2466    1540.1877   0.0006574622 
  1529         1584.8046    1539.6455   0.0006540222 
  1501         1586.5296    1539.1035   0.0006662225 
  1527         1588.439     1538.5616   0.0006548788 
  1600         1590.5533    1538.0198   0.000625  
  1585         1592.8952    1537.4783   0.0006309148 
  1588         1595.4928    1536.9368   0.0006297229 
  1554         1598.3764    1536.3956   0.0006435006 
  1521         1601.5809    1535.8545   0.0006574622 
  1485         1605.1497    1535.3135   0.0006734007 
  1585         1609.1303    1534.7727   0.0006309148 
  1553         1613.5799    1534.232    0.000643915 
  1593         1618.5642    1533.6915   0.0006277464 
  1618         1624.1657    1533.1511   0.000618047 
  1616         1631.8665    1532.6109   0.0006188119 
  1557         1639.0143    1532.0708   0.0006422608 
  1563         1647.1246    1531.5309   0.0006397953 
  1578         1656.371     1530.9911   0.0006337136 
  1665         1666.9597    1530.4514   0.0006006006 
  1724         1679.15      1529.9119   0.0005800464 
  1751         1693.9543    1529.3726   0.0005711022 
  1666         1710.4137    1528.8333   0.0006002401 
  1669         1729.7416    1528.2943   0.0005991612 
  1751         1752.6227    1527.7553   0.0005711022 
  1855         1779.9771    1527.2165   0.0005390836 
  1822         1813.0291    1526.6779   0.0005488474 
  1992         1853.4587    1526.1393   0.000502008 
  2046         1903.6072    1525.6009   0.0004887586 
  2193         1966.8822    1525.0627   0.0004559964 
  2229         2048.2747    1524.5246   0.0004486317 
  2341         2155.4512    1523.9866   0.0004271679 
  2449         2300.8337    1523.4487   0.0004083299 
  2666         2507.9362    1522.911    0.0003750938 
  3067         2834.9877    1522.3734   0.0003260515 
  4129         3457.7288    1521.836    0.0002421894 
  6193         4865.7172    1521.2987   0.0001614726 
  9985         8088.1551    1520.7615   0.0001001502 
  17115        14340.1925   1520.2244   0.0000584283 
  27050        23190.6351   1519.6875   0.0000369686 
  35574        30505.125    1519.1507   0.0000281104 
  34398        29622.6782   1518.614    0.0000290715 
  24883        21514.0541   1518.0775   0.0000401881 
  16479        14758.2999   1517.5411   0.0000606833 
  14275        13265.2761   1517.0048   0.0000700525 
  17059        15569.8262   1516.4686   0.0000586201 
  19366        17423.8384   1515.9326   0.0000516369 
  16949        14999.615    1515.3967   0.0000590005 
  11165        9944.9939    1514.8609   0.0000895656 
  6156         5904.529     1514.3252   0.0001624431 
  3763         3763.1214    1513.7897   0.0002657454 
  2757         2856.4381    1513.2543   0.0003627131 
  2447         2464.804     1512.719    0.0004086637 
  2333         2250.8709    1512.1838   0.0004286327 
  2176         2108.4265    1511.6488   0.0004595588 
  2077         2005.1504    1511.1138   0.0004814636 
  2119         1926.4652    1510.579    0.0004719207 
  2006         1865.9778    1510.0443   0.0004985045 
  1987         1817.9885    1509.5098   0.0005032713 
  1991         1779.1898    1508.9753   0.0005022602 
  1967         1747.3084    1508.441    0.0005083884 
  1881         1720.3912    1507.9067   0.0005316321 
  1972         1698.0056    1507.3726   0.0005070994 
  1993         1678.924     1506.8387   0.0005017561 
  1986         1662.5081    1506.3048   0.0005035247 
  2094         1648.2647    1505.7711   0.0004775549 
  1875         1635.8138    1505.2374   0.0005333333 
  1772         1624.8481    1504.7039   0.0005643341 
  1743         1615.131     1504.1705   0.0005737235 
  1742         1606.4695    1503.6372   0.0005740528 
  1666         1598.7086    1503.104    0.0006002401 
  1630         1591.7163    1502.571    0.0006134969 
  1640         1585.3882    1502.038    0.0006097561 
  1628         1579.6362    1501.5052   0.0006142506 
  1594         1574.3873    1500.9725   0.0006273526 
  1534         1569.5768    1500.4399   0.0006518905 
  1515         1565.1529    1499.9074   0.000660066 
  1527         1561.0715    1499.375    0.0006548788 
  1542         1557.292     1498.8427   0.0006485084 
  1498         1553.782     1498.3105   0.0006675567 
  1550         1550.5126    1497.7785   0.0006451613 
  1528         1547.4596    1497.2466   0.0006544503 
  1449         1544.5996    1496.7147   0.0006901311 
  1462         1541.9142    1496.183    0.0006839945 
  1509         1539.3867    1495.6514   0.0006626905 
  1534         1537.0027    1495.1199   0.0006518905 
  1490         1534.748     1494.5885   0.0006711409 
  1444         1532.6116    1494.0572   0.0006925208 
  1462         1530.5832    1493.526    0.0006839945 
  1406         1528.6537    1492.995    0.0007112376 
  1439         1526.8143    1492.464    0.000694927 
  1477         1525.058     1491.9332   0.0006770481 
  1454         1523.3783    1491.4024   0.0006877579 
  1446         1521.7688    1490.8718   0.0006915629 
  1404         1520.2242    1490.3413   0.0007122507 
  1429         1518.7397    1489.8108   0.0006997901 
  1502         1517.3111    1489.2805   0.000665779 
  1423         1515.9339    1488.7503   0.0007027407 
  1441         1514.6046    1488.2202   0.0006939625 
  1481         1513.32      1487.6902   0.0006752194 
  1427         1512.0772    1487.1603   0.0007007708 
  1416         1510.873     1486.6305   0.0007062147 
  1415         1509.7051    1486.1009   0.0007067138 
  1403         1508.5711    1485.5713   0.0007127584 
  1374         1507.469     1485.0418   0.000727802 
  1470         1506.3965    1484.5125   0.0006802721 
  1406         1505.352     1483.9832   0.0007112376 
  1450         1504.3339    1483.454    0.0006896552 
  1477         1503.3405    1482.925    0.0006770481 
  1501         1502.3704    1482.3961   0.0006662225 
  1412         1501.4223    1481.8672   0.0007082153 
  1461         1500.495     1481.3385   0.0006844627 
  1454         1499.5873    1480.8099   0.0006877579 
  1439         1498.6981    1480.2813   0.000694927 
  1454         1497.8265    1479.7529   0.0006877579 
  1427         1496.9717    1479.2246   0.0007007708 
  1537         1496.1327    1478.6964   0.0006506181 
  1470         1495.3086    1478.1683   0.0006802721 
  1473         1494.4989    1477.6403   0.0006788866 
  1600         1493.7028    1477.1124   0.000625  
  1455         1492.9197    1476.5846   0.0006872852 
  1418         1492.1489    1476.0569   0.0007052186 
  1441         1491.3899    1475.5293   0.0006939625 
  1393         1490.6422    1475.0018   0.0007178751 
  1399         1489.9052    1474.4744   0.0007147963 
  1455         1489.1786    1473.9472   0.0006872852 
  1412         1488.4619    1473.42     0.0007082153 
  1448         1487.7547    1472.8929   0.0006906077 
  1439         1487.0565    1472.366    0.000694927 
  1440         1486.3671    1471.8391   0.0006944444 
  1463         1485.6861    1471.3123   0.000683527 
  1417         1485.0132    1470.7857   0.0007057163 
  1399         1484.3481    1470.2591   0.0007147963 
  1411         1483.6905    1469.7327   0.0007087172 
  1329         1483.0402    1469.2064   0.0007524454 
  1399         1482.3969    1468.6801   0.0007147963 
  1391         1481.7603    1468.154    0.0007189073 
  1382         1481.1303    1467.628    0.000723589 
  1441         1480.5068    1467.102    0.0006939625 
  1373         1479.8893    1466.5762   0.0007283321 
  1342         1479.2778    1466.0505   0.0007451565 
  1468         1478.6722    1465.5249   0.0006811989 
  1383         1478.0723    1464.9994   0.0007230658 
  1453         1477.4778    1464.474    0.0006882312 
  1457         1476.8887    1463.9487   0.0006863418 
  1400         1476.3049    1463.4235   0.0007142857 
  1366         1475.7261    1462.8984   0.0007320644 
  1364         1475.1524    1462.3735   0.0007331378 
  1428         1474.5836    1461.8486   0.0007002801 
  1409         1474.0196    1461.3238   0.0007097232 
  1355         1473.4603    1460.7992   0.0007380074 
  1457         1472.9057    1460.2746   0.0006863418 
  1393         1472.3555    1459.7501   0.0007178751 
  1414         1471.8099    1459.2258   0.0007072136 
  1341         1471.2687    1458.7016   0.0007457122 
  1474         1470.7318    1458.1774   0.0006784261 
  1357         1470.1992    1457.6534   0.0007369197 
  1447         1469.6708    1457.1295   0.000691085 
  1408         1469.1466    1456.6057   0.0007102273 
  1408         1468.6266    1456.082    0.0007102273 
  1467         1468.1107    1455.5584   0.0006816633 
  1389         1467.5989    1455.0349   0.0007199424 
  1483         1467.0912    1454.5115   0.0006743088 
  1442         1466.5875    1453.9882   0.0006934813 
  1387         1466.0878    1453.4651   0.0007209805 
  1384         1465.5921    1452.942    0.0007225434 
  1381         1465.1005    1452.4191   0.000724113 
  1490         1464.6128    1451.8962   0.0006711409 
  1398         1464.1291    1451.3735   0.0007153076 
  1411         1463.6494    1450.8509   0.0007087172 
  1356         1463.1738    1450.3284   0.0007374631 
  1378         1462.7021    1449.806    0.0007256894 
  1367         1462.2346    1449.2837   0.0007315289 
  1350         1461.771     1448.7615   0.0007407407 
  1316         1461.3115    1448.2395   0.0007598784 
  1348         1460.8562    1447.7175   0.0007418398 
  1333         1460.405     1447.1957   0.0007501875 
  1314         1459.9579    1446.6739   0.000761035 
  1335         1459.5151    1446.1523   0.0007490637 
  1380         1459.0766    1445.6308   0.0007246377 
  1413         1458.6423    1445.1094   0.0007077141 
  1384         1458.2124    1444.5881   0.0007225434 
  1322         1457.787     1444.067    0.0007564297 
  1362         1457.3661    1443.5459   0.0007342144 
  1421         1456.9497    1443.025    0.0007037298 
  1417         1456.5379    1442.5041   0.0007057163 
  1357         1456.1308    1441.9834   0.0007369197 
  1369         1455.7286    1441.4628   0.0007304602 
  1396         1455.3312    1440.9424   0.0007163324 
  1339         1454.9387    1440.422    0.000746826 
  1328         1454.5514    1439.9017   0.000753012 
  1341         1454.1692    1439.3816   0.0007457122 
  1344         1453.7923    1438.8616   0.0007440476 
  1335         1453.4208    1438.3417   0.0007490637 
  1366         1453.0548    1437.8219   0.0007320644 
  1328         1452.6945    1437.3023   0.000753012 
  1395         1452.3399    1436.7827   0.0007168459 
  1334         1451.9912    1436.2633   0.0007496252 
  1368         1451.6487    1435.744    0.0007309942 
  1331         1451.3123    1435.2248   0.0007513148 
  1389         1450.9824    1434.7057   0.0007199424 
  1348         1450.6591    1434.1868   0.0007418398 
  1433         1450.3425    1433.668    0.0006978367 
  1337         1450.0329    1433.1492   0.0007479432 
  1368         1449.7304    1432.6307   0.0007309942 
  1399         1449.4353    1432.1122   0.0007147963 
  1365         1449.1478    1431.5939   0.0007326007 
  1338         1448.868     1431.0757   0.0007473842 
  1364         1448.5964    1430.5576   0.0007331378 
  1370         1448.3331    1430.0396   0.000729927 
  1410         1448.0784    1429.5218   0.0007092199 
  1409         1447.8326    1429.004    0.0007097232 
  1370         1447.5959    1428.4864   0.000729927 
  1381         1447.3688    1427.969    0.000724113 
  1336         1447.1514    1427.4516   0.000748503 
  1311         1446.9443    1426.9344   0.0007627765 
  1395         1446.7477    1426.4173   0.0007168459 
  1363         1446.5621    1425.9004   0.0007336757 
  1346         1446.3877    1425.3836   0.0007429421 
  1308         1446.2252    1424.8669   0.000764526 
  1375         1446.0749    1424.3503   0.0007272727 
  1329         1445.9372    1423.8338   0.0007524454 
  1370         1445.8127    1423.3175   0.000729927 
  1285         1445.7019    1422.8014   0.0007782101 
  1311         1445.6054    1422.2853   0.0007627765 
  1399         1445.5238    1421.7694   0.0007147963 
  1371         1445.4575    1421.2536   0.0007293946 
  1446         1445.4074    1420.738    0.0006915629 
  1424         1445.3742    1420.2224   0.0007022472 
  1500         1445.3584    1419.7071   0.0006666667 
  1478         1445.361     1419.1918   0.00067659 
  1437         1445.3827    1418.6767   0.0006958942 
  1503         1445.4244    1418.1617   0.000665336 
  1489         1445.487     1417.6469   0.0006715917 
  1434         1445.5715    1417.1322   0.0006973501 
  1456         1445.6789    1416.6176   0.0006868132 
  1440         1445.8103    1416.1032   0.0006944444 
  1518         1445.9668    1415.5889   0.0006587615 
  1464         1446.1498    1415.0748   0.0006830601 
  1471         1446.3605    1414.5607   0.0006798097 
  1454         1446.6004    1414.0469   0.0006877579 
  1422         1446.8708    1413.5331   0.0007032349 
  1508         1447.1735    1413.0196   0.00066313 
  1503         1447.5102    1412.5061   0.000665336 
  1541         1447.8826    1411.9928   0.0006489293 
  1497         1448.2925    1411.4797   0.0006680027 
  1564         1448.7423    1410.9666   0.0006393862 
  1475         1449.2342    1410.4538   0.0006779661 
  1444         1449.7705    1409.9411   0.0006925208 
  1422         1450.3535    1409.4285   0.0007032349 
  1505         1450.9863    1408.916    0.0006644518 
  1537         1451.6719    1408.4038   0.0006506181 
  1471         1452.4132    1407.8916   0.0006798097 
  1450         1453.2139    1407.3796   0.0006896552 
  1500         1454.0777    1406.8678   0.0006666667 
  1461         1455.0085    1406.3561   0.0006844627 
  1465         1456.0104    1405.8446   0.0006825939 
  1475         1457.0885    1405.3332   0.0006779661 
  1529         1458.2479    1404.822    0.0006540222 
  1388         1459.4939    1404.3109   0.0007204611 
  1424         1460.8323    1403.8      0.0007022472 
  1479         1462.2701    1403.2892   0.0006761325 
  1407         1463.8145    1402.7786   0.0007107321 
  1469         1465.473     1402.2681   0.0006807352 
  1519         1467.2537    1401.7578   0.0006583278 
  1456         1469.1667    1401.2476   0.0006868132 
  1439         1471.2222    1400.7377   0.000694927 
  1545         1473.4307    1400.2278   0.0006472492 
  1493         1475.8055    1399.7181   0.0006697924 
  1456         1478.3602    1399.2086   0.0006868132 
  1521         1481.1096    1398.6993   0.0006574622 
  1512         1484.0701    1398.1901   0.0006613757 
  1473         1488.158     1397.6811   0.0006788866 
  1492         1491.6064    1397.1722   0.0006702413 
  1463         1495.3291    1396.6635   0.000683527 
  1502         1499.3512    1396.1549   0.000665779 
  1508         1503.703     1395.6466   0.00066313 
  1508         1508.4171    1395.1383   0.00066313 
  1472         1513.5301    1394.6303   0.0006793478 
  1481         1519.0825    1394.1224   0.0006752194 
  1479         1525.5739    1393.6147   0.0006761325 
  1509         1532.1601    1393.1072   0.0006626905 
  1560         1539.3482    1392.5998   0.0006410256 
  1559         1547.2112    1392.0926   0.0006414368 
  1489         1555.8302    1391.5855   0.0006715917 
  1579         1565.2986    1391.0787   0.0006333122 
  1536         1575.7236    1390.572    0.0006510417 
  1625         1587.2361    1390.0655   0.0006153846 
  1639         1599.9848    1389.5591   0.0006101281 
  1711         1614.1456    1389.053    0.0005844535 
  1704         1629.9241    1388.547    0.0005868545 
  1738         1647.5752    1388.0412   0.000575374 
  1672         1667.3973    1387.5355   0.0005980861 
  1701         1689.7521    1387.0301   0.0005878895 
  1682         1715.0762    1386.5248   0.0005945303 
  1780         1743.9219    1386.0197   0.0005617978 
  1832         1776.9614    1385.5147   0.0005458515 
  1818         1815.0303    1385.01     0.000550055 
  1943         1859.2152    1384.5054   0.000514668 
  2063         1910.8801    1384.0011   0.000484731 
  2188         1971.8152    1383.4969   0.0004570384 
  2387         2044.3574    1382.9929   0.0004189359 
  2370         2131.6945    1382.489    0.0004219409 
  2630         2238.1395    1381.9854   0.0003802281 
  2946         2369.7233    1381.4819   0.0003394433 
  2927         2535.0391    1380.9787   0.0003416467 
  3176         2746.8519    1380.4756   0.0003148615 
  3266         3024.4589    1379.9727   0.0003061849 
  3494         3398.6176    1379.47     0.0002862049 
  3831         3923.3536    1378.9675   0.0002610285 
  4800         4720.3364    1378.4652   0.0002083333 
  7135         6149.3236    1377.9631   0.0001401542 
  11925        9286.5213    1377.4611   0.0000838574 
  20328        16577.3176   1376.9594   0.0000491932 
  35634        31279.4856   1376.4579   0.0000280631 
  58816        53018.3008   1375.9565   0.0000170022 
  79819        71616.6644   1375.4554   0.0000125283 
  79279        70632.9026   1374.9544   0.0000126137 
  57913        49991.5953   1374.4537   0.0000172673 
  34413        30804.0783   1373.9531   0.0000290588 
  24374        23263.9513   1373.4528   0.0000410273 
  27587        26861.296    1372.9526   0.000036249 
  37291        35547.9705   1372.4527   0.0000268161 
  42709        39897.537    1371.9529   0.0000234143 
  37044        32647.3205   1371.4534   0.0000269949 
  23521        20361.3673   1370.9541   0.0000425152 
  12458        11291.9198   1370.4549   0.0000802697 
  6816         6633.9282    1369.956    0.0001467136 
  4534         4641.9535    1369.4573   0.0002205558 
  3834         3737.7666    1368.9588   0.0002608242 
  3347         3220.601     1368.4605   0.000298775 
  3043         2870.0618    1367.9624   0.0003286231 
  2742         2614.3646    1367.4645   0.0003646973 
  2473         2420.826     1366.9669   0.0004043672 
  2333         2270.3049    1366.4694   0.0004286327 
  2096         2150.6856    1365.9722   0.0004770992 
  2085         2053.8607    1365.4751   0.0004796163 
  2027         1974.2362    1364.9783   0.0004933399 
  1932         1907.8822    1364.4817   0.0005175983 
  1751         1851.9419    1363.9854   0.0005711022 
  1764         1804.2899    1363.4892   0.0005668934 
  1682         1763.3201    1362.9933   0.0005945303 
  1529         1727.813     1362.4976   0.0006540222 
  1648         1696.8178    1362.0021   0.0006067961 
  1651         1669.5786    1361.5068   0.0006056935 
  1527         1645.4923    1361.0117   0.0006548788 
  1532         1624.0792    1360.5169   0.0006527415 
  1528         1604.9483    1360.0223   0.0006544503 
  1512         1587.7741    1359.5279   0.0006613757 
  1473         1572.2877    1359.0338   0.0006788866 
  1443         1558.2704    1358.5399   0.0006930007 
  1517         1545.5333    1358.0462   0.0006591958 
  1521         1533.9175    1357.5527   0.0006574622 
  1445         1523.2907    1357.0595   0.0006920415 
  1447         1513.5395    1356.5665   0.000691085 
  1469         1504.5643    1356.0737   0.0006807352 
  1436         1496.2796    1355.5812   0.0006963788 
  1476         1488.613     1355.0889   0.0006775068 
  1432         1481.5017    1354.5968   0.000698324 
  1475         1474.8888    1354.105    0.0006779661 
  1414         1468.7249    1353.6134   0.0007072136 
  1423         1462.9678    1353.1221   0.0007027407 
  1484         1457.5801    1352.631    0.0006738544 
  1439         1452.5276    1352.1401   0.000694927 
  1468         1447.78      1351.6495   0.0006811989 
  1482         1443.3119    1351.1591   0.0006747638 
  1449         1439.0983    1350.6689   0.0006901311 
  1399         1435.1192    1350.179    0.0007147963 
  1463         1431.3545    1349.6894   0.000683527 
  1412         1427.7881    1349.2      0.0007082153 
  1393         1424.4039    1348.7108   0.0007178751 
  1431         1421.1878    1348.2219   0.000698812 
  1465         1418.1275    1347.7332   0.0006825939 
  1443         1414.7925    1347.2448   0.0006930007 
  1416         1412.0131    1346.7567   0.0007062147 
  1376         1409.3578    1346.2688   0.0007267442 
  1439         1406.8182    1345.7811   0.000694927 
  1417         1404.3868    1345.2937   0.0007057163 
  1372         1402.0558    1344.8065   0.000728863 
  1313         1399.6093    1344.3197   0.0007616146 
  1389         1397.4613    1343.833    0.0007199424 
  1391         1395.3958    1343.3466   0.0007189073 
  1315         1393.4073    1342.8605   0.0007604563 
  1341         1391.4911    1342.3747   0.0007457122 
  1414         1389.643     1341.8891   0.0007072136 
  1423         1387.8588    1341.4037   0.0007027407 
  1327         1386.1349    1340.9187   0.0007535795 
  1353         1384.4676    1340.4339   0.0007390983 
  1351         1382.8541    1339.9493   0.0007401925 
  1406         1381.2911    1339.4651   0.0007112376 
  1374         1379.7757    1338.9811   0.000727802 
  1382         1378.3056    1338.4973   0.000723589 
  1355         1376.8784    1338.0138   0.0007380074 
  1358         1375.4917    1337.5306   0.000736377 
  1369         1374.1434    1337.0477   0.0007304602 
  1370         1372.8317    1336.5651   0.000729927 
  1298         1371.5547    1336.0827   0.000770416 
  1409         1370.3108    1335.6006   0.0007097232 
  1412         1369.0981    1335.1187   0.0007082153 
  1303         1367.9155    1334.6372   0.0007674597 
  1273         1366.7613    1334.1559   0.000785546 
  1342         1365.6344    1333.6749   0.0007451565 
  1380         1364.5334    1333.1942   0.0007246377 
  1276         1363.4572    1332.7138   0.0007836991 
  1350         1362.4048    1332.2336   0.0007407407 
  1313         1361.375     1331.7537   0.0007616146 
  1361         1360.3669    1331.2741   0.0007347539 
  1336         1359.3798    1330.7948   0.000748503 
  1344         1358.4125    1330.3158   0.0007440476 
  1351         1357.4644    1329.8371   0.0007401925 
  1409         1356.5347    1329.3587   0.0007097232 
  1363         1355.6228    1328.8805   0.0007336757 
  1313         1354.7279    1328.4026   0.0007616146 
  1336         1353.8492    1327.9251   0.000748503 
  1323         1352.9864    1327.4478   0.0007558579 
  1356         1352.1389    1326.9708   0.0007374631 
  1356         1351.3059    1326.4941   0.0007374631 
  1312         1350.4872    1326.0177   0.0007621951 
  1308         1349.6821    1325.5416   0.000764526 
  1330         1348.8903    1325.0658   0.0007518797 
  1310         1348.1112    1324.5903   0.0007633588 
  1301         1347.3446    1324.1151   0.0007686395 
  1381         1346.59      1323.6402   0.000724113 
  1308         1345.847     1323.1656   0.000764526 
  1301         1345.1154    1322.6913   0.0007686395 
  1318         1344.3947    1322.2173   0.0007587253 
  1337         1343.6848    1321.7436   0.0007479432 
  1313         1342.9852    1321.2702   0.0007616146 
  1315         1342.2958    1320.7971   0.0007604563 
  1405         1341.6163    1320.3244   0.0007117438 
  1309         1340.9464    1319.8519   0.0007639419 
  1341         1340.286     1319.3797   0.0007457122 
  1371         1339.6347    1318.9079   0.0007293946 
  1369         1338.9925    1318.4364   0.0007304602 
  1279         1338.359     1317.9652   0.0007818608 
  1298         1337.7343    1317.4943   0.000770416 
  1260         1337.1179    1317.0237   0.0007936508 
  1210         1336.51      1316.5534   0.0008264463 
  1297         1335.9103    1316.0835   0.00077101 
  1307         1335.3186    1315.6138   0.0007651109 
  1332         1334.7348    1315.1445   0.0007507508 
  1341         1334.1589    1314.6755   0.0007457122 
  1384         1333.5908    1314.2068   0.0007225434 
  1413         1333.0303    1313.7385   0.0007077141 
  1280         1332.4773    1313.2705   0.00078125 
  1358         1331.9319    1312.8028   0.000736377 
  1321         1331.3939    1312.3354   0.0007570023 
  1351         1330.8633    1311.8684   0.0007401925 
  1304         1330.34      1311.4016   0.0007668712 
  1268         1329.8241    1310.9353   0.0007886435 
  1289         1329.3154    1310.4692   0.0007757952 
  1285         1328.8139    1310.0035   0.0007782101 
  1275         1328.3197    1309.5381   0.0007843137 
  1361         1327.8328    1309.073    0.0007347539 
  1242         1327.3531    1308.6083   0.000805153 
  1317         1326.8807    1308.1439   0.0007593014 
  1336         1326.4156    1307.6799   0.000748503 
  1338         1325.9578    1307.2162   0.0007473842 
  1353         1325.5073    1306.7528   0.0007390983 
  1365         1325.0643    1306.2898   0.0007326007 
  1314         1324.6287    1305.8271   0.000761035 
  1221         1324.2007    1305.3647   0.0008190008 
  1328         1323.7804    1304.9027   0.000753012 
  1284         1323.3677    1304.441    0.0007788162 
  1323         1322.9629    1303.9797   0.0007558579 
  1268         1322.566     1303.5188   0.0007886435 
  1264         1322.1771    1303.0581   0.0007911392 
  1317         1321.7964    1302.5979   0.0007593014 
  1311         1321.424     1302.1379   0.0007627765 
  1251         1321.0601    1301.6784   0.0007993605 
  1276         1320.7048    1301.2192   0.0007836991 
  1303         1320.3584    1300.7603   0.0007674597 
  1273         1320.021     1300.3018   0.000785546 
  1364         1319.6929    1299.8436   0.0007331378 
  1279         1319.3741    1299.3858   0.0007818608 
  1345         1319.0651    1298.9284   0.0007434944 
  1363         1318.7661    1298.4713   0.0007336757 
  1321         1318.4772    1298.0146   0.0007570023 
  1358         1318.1989    1297.5582   0.000736377 
  1314         1317.9314    1297.1022   0.000761035 
  1410         1317.6751    1296.6465   0.0007092199 
  1266         1317.4303    1296.1913   0.0007898894 
  1316         1317.1974    1295.7364   0.0007598784 
  1354         1316.9768    1295.2818   0.0007385524 
  1343         1316.769     1294.8276   0.0007446016 
  1348         1316.5743    1294.3738   0.0007418398 
  1316         1316.3933    1293.9204   0.0007598784 
  1380         1316.2265    1293.4673   0.0007246377 
  1298         1316.0745    1293.0146   0.000770416 
  1368         1315.9378    1292.5623   0.0007309942 
  1309         1315.8171    1292.1103   0.0007639419 
  1314         1315.713     1291.6587   0.000761035 
  1324         1315.6261    1291.2075   0.000755287 
  1310         1315.5575    1290.7567   0.0007633588 
  1329         1315.5078    1290.3063   0.0007524454 
  1334         1315.4778    1289.8562   0.0007496252 
  1348         1315.4684    1289.4065   0.0007418398 
  1373         1315.4808    1288.9572   0.0007283321 
  1341         1315.516     1288.5083   0.0007457122 
  1382         1315.5751    1288.0597   0.000723589 
  1372         1315.6591    1287.6115   0.000728863 
  1322         1315.7696    1287.1638   0.0007564297 
  1326         1315.9079    1286.7164   0.0007541478 
  1402         1316.0755    1286.2694   0.0007132668 
  1316         1316.2738    1285.8228   0.0007598784 
  1344         1316.5049    1285.3765   0.0007440476 
  1414         1316.7704    1284.9307   0.0007072136 
  1390         1317.0723    1284.4853   0.0007194245 
  1324         1317.4128    1284.0402   0.000755287 
  1306         1317.7944    1283.5956   0.0007656968 
  1390         1318.2195    1283.1513   0.0007194245 
  1276         1318.6906    1282.7074   0.0007836991 
  1322         1319.2111    1282.264    0.0007564297 
  1352         1319.7839    1281.8209   0.000739645 
  1363         1320.4126    1281.3782   0.0007336757 
  1369         1321.1008    1280.9359   0.0007304602 
  1314         1321.853     1280.4941   0.000761035 
  1362         1322.6735    1280.0526   0.0007342144 
  1293         1323.5671    1279.6115   0.0007733952 
  1288         1324.5391    1279.1709   0.0007763975 
  1367         1325.596     1278.7306   0.0007315289 
  1268         1326.7437    1278.2908   0.0007886435 
  1305         1327.9896    1277.8513   0.0007662835 
  1303         1329.3411    1277.4123   0.0007674597 
  1335         1330.8077    1276.9737   0.0007490637 
  1298         1332.3983    1276.5354   0.000770416 
  1365         1334.1238    1276.0976   0.0007326007 
  1310         1335.9956    1275.6603   0.0007633588 
  1381         1338.0276    1275.2233   0.000724113 
  1332         1340.2339    1274.7867   0.0007507508 
  1291         1342.6306    1274.3506   0.0007745933 
  1319         1345.2371    1273.9148   0.0007581501 
  1354         1348.0736    1273.4795   0.0007385524 
  1370         1351.1632    1273.0446   0.000729927 
  1245         1354.532     1272.6102   0.0008032129 
  1332         1358.2112    1272.1761   0.0007507508 
  1348         1362.2343    1271.7425   0.0007418398 
  1338         1366.6401    1271.3093   0.0007473842 
  1367         1371.4727    1270.8765   0.0007315289 
  1362         1376.7855    1270.4441   0.0007342144 
  1297         1382.6369    1270.0122   0.00077101 
  1401         1389.0969    1269.5807   0.0007137759 
  1425         1396.2443    1269.1496   0.0007017544 
  1472         1404.1771    1268.719    0.0006793478 
  1366         1413.0053    1268.2888   0.0007320644 
  1371         1422.8604    1267.859    0.0007293946 
  1466         1433.9045    1267.4296   0.0006821282 
  1396         1446.3263    1267.0007   0.0007163324 
  1424         1460.3554    1266.5722   0.0007022472 
  1493         1476.2711    1266.1442   0.0006697924 
  1509         1494.4253    1265.7165   0.0006626905 
  1566         1515.2445    1265.2894   0.0006385696 
  1492         1539.2666    1264.8626   0.0006702413 
  1558         1567.1704    1264.4363   0.0006418485 
  1658         1599.844     1264.0105   0.0006031363 
  1687         1638.4216    1263.585    0.0005927682 
  1834         1684.4134    1263.1601   0.0005452563 
  1942         1739.8294    1262.7355   0.0005149331 
  2160         1807.4638    1262.3114   0.000462963 
  2240         1891.1766    1261.8878   0.0004464286 
  2126         1996.4955    1261.4646   0.0004703669 
  2197         2131.6374    1261.0419   0.0004551661 
  2280         2309.025     1260.6195   0.0004385965 
  2344         2548.4696    1260.1977   0.0004266212 
  2603         2884.5697    1259.7763   0.0003841721 
  3126         3393.5474    1259.3553   0.0003198976 
  4440         4295.3025    1258.9348   0.0002252252 
  7079         6242.3814    1258.5148   0.0001412629 
  12016        10707.7689   1258.0952   0.0000832224 
  21034        19593.3881   1257.6761   0.0000475421 
  33984        32524.3522   1257.2574   0.0000294256 
  44891        42820.6733   1256.8392   0.0000222762 
  43131        40381.3489   1256.4214   0.0000231852 
  29877        27693.0462   1256.0041   0.0000334706 
  17080        16607.2681   1255.5872   0.000058548 
  11168        11549.6362   1255.1709   0.0000895415 
  11734        12200.7453   1254.7549   0.0000852224 
  16361        16929.3581   1254.3395   0.000061121 
  22386        22329.2708   1253.9245   0.0000446708 
  23884        22868.6603   1253.5099   0.000041869 
  18589        16961.3937   1253.0959   0.0000537953 
  11118        10278.4252   1252.6823   0.0000899442 
  6146         5998.1284    1252.2691   0.0001627075 
  3884         3932.6128    1251.8565   0.0002574665 
  2817         3031.4063    1251.4443   0.0003549876 
  2360         2583.7662    1251.0326   0.0004237288 
  2237         2308.2759    1250.6213   0.0004470273 
  2120         2115.7011    1250.2105   0.0004716981 
  1988         1973.3197    1249.8002   0.0005030181 
  1770         1864.5472    1249.3904   0.0005649718 
  1664         1779.2961    1248.981    0.0006009615 
  1754         1711.0903    1248.5722   0.0005701254 
  1605         1655.5435    1248.1638   0.000623053 
  1568         1609.6313    1247.7558   0.0006377551 
  1527         1571.1777    1247.3484   0.0006548788 
  1483         1538.6032    1246.9414   0.0006743088 
  1485         1510.7348    1246.5349   0.0006734007 
  1383         1486.6832    1246.1289   0.0007230658 
  1412         1465.7562    1245.7234   0.0007082153 
  1428         1447.4162    1245.3184   0.0007002801 
  1409         1431.2405    1244.9138   0.0007097232 
  1354         1416.8908    1244.5098   0.0007385524 
  1432         1404.0898    1244.1062   0.000698324 
  1385         1392.6122    1243.7031   0.0007220217 
  1394         1382.2749    1243.3005   0.0007173601 
  1455         1372.9256    1242.8984   0.0006872852 
  1374         1364.4351    1242.4967   0.000727802 
  1312         1356.6947    1242.0956   0.0007621951 
  1373         1349.6151    1241.6949   0.0007283321 
  1346         1343.1171    1241.2948   0.0007429421 
  1304         1337.1358    1240.8951   0.0007668712 
  1379         1331.6127    1240.496    0.0007251632 
  1327         1326.4997    1240.0973   0.0007535795 
  1295         1321.7532    1239.6991   0.0007722008 
  1256         1317.3356    1239.3015   0.0007961783 
  1302         1313.2146    1238.9043   0.0007680492 
  1409         1309.3621    1238.5076   0.0007097232 
  1221         1305.7523    1238.1114   0.0008190008 
  1279         1302.3625    1237.7157   0.0007818608 
  1265         1299.1734    1237.3206   0.0007905138 
  1285         1296.1675    1236.9259   0.0007782101 
  1282         1293.329     1236.5317   0.0007800312 
  1302         1290.6435    1236.138    0.0007680492 
  1323         1288.0989    1235.7449   0.0007558579 
  1273         1285.6834    1235.3522   0.000785546 
  1276         1283.3874    1234.9601   0.0007836991 
  1219         1281.2012    1234.5684   0.0008203445 
  1357         1279.1168    1234.1773   0.0007369197 
  1204         1277.1267    1233.7867   0.0008305648 
  1306         1275.2236    1233.3965   0.0007656968 
  1282         1273.4017    1233.0069   0.0007800312 
  1305         1271.6553    1232.6178   0.0007662835 
  1276         1269.9792    1232.2292   0.0007836991 
  1260         1268.3684    1231.8412   0.0007936508 
  1302         1266.8188    1231.4536   0.0007680492 
  1270         1265.3265    1231.0666   0.0007874016 
  1269         1263.8877    1230.68     0.0007880221 
  1280         1262.4989    1230.294    0.00078125 
  1222         1261.1573    1229.9085   0.0008183306 
  1258         1259.8597    1229.5236   0.0007949126 
  1248         1258.6039    1229.1391   0.0008012821 
  1250         1257.3869    1228.7552   0.0008    
  1213         1256.2069    1228.3718   0.0008244023 
  1291         1255.0617    1227.9889   0.0007745933 
  1223         1253.9491    1227.6065   0.0008176615 
  1213         1252.8674    1227.2246   0.0008244023 
  1297         1251.8151    1226.8433   0.00077101 
  1264         1250.7905    1226.4625   0.0007911392 
  1191         1249.7921    1226.0822   0.0008396306 
  1241         1248.8185    1225.7025   0.0008058018 
  1280         1247.8686    1225.3232   0.00078125 
  1212         1246.9411    1224.9445   0.0008250825 
  1290         1246.0348    1224.5664   0.0007751938 
  1323         1245.1488    1224.1887   0.0007558579 
  1294         1244.2821    1223.8116   0.0007727975 
  1280         1243.4337    1223.435    0.00078125 
  1165         1242.6027    1223.059    0.0008583691 
  1277         1241.7884    1222.6835   0.0007830854 
  1299         1239.9099    1222.3085   0.0007698229 
  1265         1239.133     1221.934    0.0007905138 
  1229         1238.3705    1221.5601   0.0008136697 
  1285         1237.6219    1221.1867   0.0007782101 
  1226         1236.8865    1220.8139   0.0008156607 
  1287         1236.1636    1220.4416   0.0007770008 
  1271         1234.9112    1220.0698   0.0007867821 
  1209         1234.2153    1219.6985   0.0008271299 
  1263         1233.5305    1219.3278   0.0007917656 
  1176         1232.8562    1218.9577   0.0008503401 
  1232         1232.1922    1218.5881   0.0008116883 
  1224         1231.538     1218.219    0.0008169935 
  1261         1230.8933    1217.8504   0.0007930214 
  1207         1230.2575    1217.4824   0.0008285004 
  1271         1229.6305    1217.115    0.0007867821 
  1234         1229.0119    1216.7481   0.0008103728 
  1277         1228.4014    1216.3817   0.0007830854 
  1231         1227.7986    1216.0159   0.0008123477 
  1214         1227.2033    1215.6506   0.0008237232 
  1183         1226.6152    1215.2859   0.0008453085 
  1240         1226.0342    1214.9217   0.0008064516 
  1276         1225.4598    1214.558    0.0007836991 
  1258         1224.8919    1214.1949   0.0007949126 
  1212         1224.3303    1213.8324   0.0008250825 
  1244         1223.7747    1213.4704   0.0008038585 
  1246         1223.225     1213.109    0.0008025682 
  1212         1222.681     1212.7481   0.0008250825 
  1279         1222.1425    1212.3877   0.0007818608 
  1253         1221.6093    1212.0279   0.0007980846 
  1274         1221.0812    1211.6687   0.0007849294 
  1291         1220.5581    1211.31     0.0007745933 
  1199         1220.0398    1210.9519   0.0008340284 
  1230         1219.5262    1210.5943   0.0008130081 
  1279         1219.0171    1210.2373   0.0007818608 
  1234         1218.5125    1209.8808   0.0008103728 
  1270         1218.0121    1209.5249   0.0007874016 
  1214         1217.5159    1209.1695   0.0008237232 
  1279         1217.0237    1208.8147   0.0007818608 
  1236         1216.5355    1208.4605   0.0008090615 
  1211         1216.0511    1208.1068   0.0008257638 
  1202         1215.5703    1207.7537   0.0008319468 
  1258         1215.0932    1207.4011   0.0007949126 
  1238         1214.6196    1207.0491   0.0008077544 
  1248         1214.1494    1206.6977   0.0008012821 
  1247         1213.6826    1206.3468   0.0008019246 
  1240         1213.219     1205.9965   0.0008064516 
  1262         1212.7586    1205.6467   0.000792393 
  1209         1212.3013    1205.2975   0.0008271299 
  1243         1211.8469    1204.9489   0.0008045052 
  1240         1211.3956    1204.6008   0.0008064516 
  1226         1210.9471    1204.2533   0.0008156607 
  1207         1210.5013    1203.9064   0.0008285004 
  1186         1210.0584    1203.56     0.0008431703 
  1303         1209.6181    1203.2142   0.0007674597 
  1236         1209.1804    1202.869    0.0008090615 
  1230         1208.7453    1202.5243   0.0008130081 
  1156         1208.3126    1202.1802   0.0008650519 
  1263         1207.8825    1201.8367   0.0007917656 
  1255         1207.4547    1201.4937   0.0007968127 
  1240         1207.0292    1201.1513   0.0008064516 
  1216         1206.6061    1200.8095   0.0008223684 
  1224         1206.1852    1200.4682   0.0008169935 
  1281         1205.7665    1200.1275   0.0007806401 
  1207         1205.3499    1199.7874   0.0008285004 
  1156         1204.9355    1199.4479   0.0008650519 
  1199         1204.5231    1199.1089   0.0008340284 
  1231         1204.1128    1198.7705   0.0008123477 
  1232         1203.7045    1198.4327   0.0008116883 
  1244         1203.2981    1198.0954   0.0008038585 
  1187         1202.8937    1197.7587   0.00084246 
  1213         1202.4912    1197.4226   0.0008244023 
  1216         1202.0905    1197.0871   0.0008223684 
  1265         1201.6916    1196.7521   0.0007905138 
  1239         1201.2945    1196.4178   0.0008071025 
  1227         1200.8992    1196.0839   0.0008149959 
  1272         1200.5056    1195.7507   0.0007861635 
  1204         1200.1138    1195.4181   0.0008305648 
  1252         1199.7236    1195.086    0.000798722 
  1207         1199.335     1194.7545   0.0008285004 
  1181         1198.9481    1194.4236   0.0008467401 
  1193         1198.5628    1194.0932   0.000838223 
  1234         1198.179     1193.7635   0.0008103728 
  1187         1197.7969    1193.4343   0.00084246 
  1197         1197.4162    1193.1057   0.0008354219 
  1202         1197.037     1192.7777   0.0008319468 
  1220         1196.6594    1192.4502   0.0008196721 
  1166         1196.2832    1192.1234   0.0008576329 
  1275         1195.9084    1191.7971   0.0007843137 
  1207         1195.9804    1191.4714   0.0008285004 
  1220         1195.6115    1191.1463   0.0008196721 
  1189         1195.2441    1190.8218   0.0008410429 
  1206         1194.878     1190.4978   0.0008291874 
  1197         1194.5133    1190.1744   0.0008354219 
  1150         1194.15      1189.8517   0.0008695652 
  1220         1193.7881    1189.5295   0.0008196721 
  1184         1193.4275    1189.2078   0.0008445946 
  1211         1193.0682    1188.8868   0.0008257638 
  1240         1192.9331    1188.5664   0.0008064516 
  1240         1192.578     1188.2465   0.0008064516 
  1269         1192.2241    1187.9272   0.0007880221 
  1189         1191.8715    1187.6085   0.0008410429 
  1226         1191.5202    1187.2904   0.0008156607 
  1198         1191.1701    1186.9729   0.0008347245 
  1166         1190.8213    1186.656    0.0008576329 
  1193         1190.4737    1186.3396   0.000838223 
  1183         1190.1273    1186.0238   0.0008453085 
  1165         1189.7822    1185.7087   0.0008583691 
  1170         1189.4382    1185.3941   0.0008547009 
  1165         1189.0954    1185.0801   0.0008583691 
  1301         1188.7538    1184.7667   0.0007686395 
  1188         1188.4134    1184.4538   0.0008417508 
  1208         1188.0741    1184.1416   0.0008278146 
  1190         1187.736     1183.83     0.0008403361 
  1138         1187.399     1183.5189   0.0008787346 
  1198         1187.0632    1183.2084   0.0008347245 
  1187         1186.7284    1182.8986   0.00084246 
  1157         1186.3948    1182.5893   0.0008643042 
  1215         1186.0623    1182.2806   0.0008230453 
  1151         1185.7309    1181.9724   0.0008688097 
  1164         1185.4006    1181.6649   0.0008591065 
  1240         1185.0714    1181.358    0.0008064516 
  1186         1184.7432    1181.0516   0.0008431703 
  1234         1184.4161    1180.7459   0.0008103728 
  1207         1184.0901    1180.4407   0.0008285004 
  1229         1183.7652    1180.1362   0.0008136697 
  1242         1183.4413    1179.8322   0.000805153 
  1260         1183.1184    1179.5288   0.0007936508 
  1213         1182.7966    1179.226    0.0008244023 
  1204         1182.4758    1178.9238   0.0008305648 
  1150         1182.156     1178.6222   0.0008695652 
  1222         1181.8373    1178.3212   0.0008183306 
  1161         1181.5196    1178.0207   0.0008613264 
  1171         1181.2029    1177.7209   0.000853971 
  1161         1180.8872    1177.4216   0.0008613264 
  1223         1180.5725    1177.123    0.0008176615 
  1167         1180.2588    1176.8249   0.000856898 
  1239         1179.9461    1176.5274   0.0008071025 
  1155         1179.6344    1176.2306   0.0008658009 
  1170         1179.3237    1175.9343   0.0008547009 
  1199         1179.014     1175.6386   0.0008340284 
  1117         1178.7052    1175.3435   0.0008952551 
  1192         1178.3975    1175.049    0.0008389262 
  1173         1178.0907    1174.755    0.0008525149 
  1170         1177.7848    1174.4617   0.0008547009 
  1192         1177.48      1174.169    0.0008389262 
  1193         1177.1761    1173.8769   0.000838223 
  1108         1176.8731    1173.5853   0.0009025271 
  1132         1176.5711    1173.2944   0.0008833922 
  1186         1176.2701    1173.004    0.0008431703 
  1194         1175.9701    1172.7142   0.0008375209 
  1174         1175.6709    1172.425    0.0008517888 
  1128         1175.3728    1172.1365   0.0008865248 
  1216         1175.0755    1171.8485   0.0008223684 
  1180         1174.7793    1171.5611   0.0008474576 
  1117         1174.4839    1171.2743   0.0008952551 
  1154         1174.1895    1170.9881   0.0008665511 
  1176         1173.8961    1170.7024   0.0008503401 
  1163         1173.6036    1170.4174   0.0008598452 
  1224         1173.312     1170.133    0.0008169935 
  1100         1173.0213    1169.8491   0.0009090909 
  1165         1172.7316    1169.5659   0.0008583691 
  1173         1172.4429    1169.2832   0.0008525149 
  1173         1172.155     1169.0012   0.0008525149 
  1149         1171.8681    1168.7197   0.000870322 
  1177         1171.5821    1168.4388   0.0008496177 
  1182         1171.2971    1168.1585   0.0008460237 
  1230         1171.013     1167.8788   0.0008130081 
  1155         1170.7298    1167.5997   0.0008658009 
  1202         1170.4475    1167.3212   0.0008319468 
  1152         1170.1662    1167.0433   0.0008680556 
  1165         1169.8858    1166.7659   0.0008583691 
  1164         1169.6063    1166.4892   0.0008591065 
  1160         1169.3278    1166.2131   0.000862069 
  1217         1169.0502    1165.9375   0.0008216927 
  1183         1168.7735    1165.6625   0.0008453085 
  1203         1168.4977    1165.3881   0.0008312552 
  1153         1168.2229    1165.1144   0.0008673027 
  1135         1167.949     1164.8412   0.0008810573 
  1147         1167.6761    1164.5686   0.0008718396 
  1137         1167.4041    1164.2965   0.0008795075 
  1195         1167.133     1164.0251   0.0008368201 
  1157         1166.8629    1163.7543   0.0008643042 
  1127         1166.5937    1163.484    0.0008873114 
  1103         1166.3254    1163.2144   0.0009066183 
  1187         1166.0581    1162.9453   0.00084246 
  1229         1165.7918    1162.6768   0.0008136697 
  1145         1165.5264    1162.4089   0.0008733624 
  1178         1165.2619    1162.1416   0.0008488964 
  1178         1164.9984    1161.8749   0.0008488964 
  1152         1164.7358    1161.6088   0.0008680556 
  1143         1164.4742    1161.3432   0.0008748906 
  1153         1164.2136    1161.0783   0.0008673027 
  1174         1163.9539    1160.8139   0.0008517888 
  1104         1163.6952    1160.5501   0.0009057971 
  1148         1163.4375    1160.2869   0.0008710801 
  1097         1163.1807    1160.0243   0.000911577 
  1123         1162.9249    1159.7623   0.000890472 
  1224         1162.6701    1159.5009   0.0008169935 
  1160         1162.4163    1159.24     0.000862069 
  1159         1162.1635    1158.9797   0.0008628128 
  1099         1161.9116    1158.7201   0.0009099181 
  1239         1161.6608    1158.461    0.0008071025 
  1172         1161.411     1158.2024   0.0008532423 
  1126         1161.1621    1157.9445   0.0008880995 
  1166         1160.9143    1157.6872   0.0008576329 
  1147         1160.6675    1157.4304   0.0008718396 
  1178         1160.4218    1157.1742   0.0008488964 
  1192         1160.177     1156.9186   0.0008389262 
  1201         1159.9333    1156.6636   0.0008326395 
  1112         1159.6907    1156.4091   0.0008992806 
  1089         1159.4491    1156.1553   0.0009182736 
  1167         1159.2085    1155.902    0.000856898 
  1167         1158.969     1155.6493   0.000856898 
  1236         1158.7306    1155.3972   0.0008090615 
  1207         1158.4933    1155.1456   0.0008285004 
  1188         1158.257     1154.8946   0.0008417508 
  1166         1158.0219    1154.6443   0.0008576329 
  1139         1157.7878    1154.3945   0.0008779631 
  1125         1157.5549    1154.1452   0.0008888889 
  1169         1157.3231    1153.8966   0.000855432 
  1214         1157.0924    1153.6485   0.0008237232 
  1112         1156.8629    1153.401    0.0008992806 
  1148         1156.6345    1153.154    0.0008710801 
  1116         1156.4073    1152.9077   0.0008960573 
  1116         1156.1812    1152.6619   0.0008960573 
  1167         1155.9564    1152.4167   0.000856898 
  1165         1155.7327    1152.1721   0.0008583691 
  1163         1155.5103    1151.928    0.0008598452 
  1217         1155.289     1151.6845   0.0008216927 
  1189         1155.069     1151.4416   0.0008410429 
  1215         1154.8503    1151.1992   0.0008230453 
  1130         1154.6328    1150.9574   0.0008849558 
  1210         1154.4166    1150.7162   0.0008264463 
  1276         1154.2018    1150.4756   0.0007836991 
  1307         1153.9882    1150.2355   0.0007651109 
  1215         1153.7759    1149.996    0.0008230453 
  1227         1153.565     1149.7571   0.0008149959 
  1144         1153.3555    1149.5187   0.0008741259 
  1167         1153.1473    1149.2809   0.000856898 
  1137         1152.9406    1149.0437   0.0008795075 
  1136         1152.7352    1148.807    0.0008802817 
  1130         1152.5313    1148.5709   0.0008849558 
  1184         1152.3289    1148.3353   0.0008445946 
  1227         1152.128     1148.1003   0.0008149959 
  1133         1151.9286    1147.8659   0.0008826125 
  1117         1151.7307    1147.632    0.0008952551 
  1157         1151.5344    1147.3987   0.0008643042 
  1098         1151.3396    1147.166    0.0009107468 
  1117         1151.1465    1146.9338   0.0008952551 
  1114         1150.955     1146.7022   0.0008976661 
  1124         1150.7652    1146.4711   0.0008896797 
  1083         1150.5771    1146.2406   0.000923361 
  1179         1150.3907    1146.0106   0.0008481764 
  1094         1150.2061    1145.7812   0.0009140768 
  1121         1150.0234    1145.5524   0.0008920607 
  1111         1149.8424    1145.3241   0.00090009 
  1229         1149.6633    1145.0964   0.0008136697 
  1132         1149.4862    1144.8692   0.0008833922 
  1113         1149.3109    1144.6426   0.0008984726 
  1109         1149.1377    1144.4165   0.0009017133 
  1082         1148.9666    1144.1909   0.0009242144 
  1138         1148.7975    1143.966    0.0008787346 
  1193         1147.97      1143.7415   0.000838223 
  1164         1147.809     1143.5176   0.0008591065 
  1170         1147.6502    1143.2943   0.0008547009 
  1130         1147.4937    1143.0715   0.0008849558 
  1189         1147.3395    1142.8492   0.0008410429 
  1161         1147.1877    1142.6275   0.0008613264 
  1182         1147.0384    1142.4064   0.0008460237 
  1224         1146.8915    1142.1858   0.0008169935 
  1192         1146.4182    1141.9657   0.0008389262 
  1195         1146.2785    1141.7461   0.0008368201 
  1170         1146.1414    1141.5271   0.0008547009 
  1188         1146.0071    1141.3087   0.0008417508 
  1189         1145.8757    1141.0908   0.0008410429 
  1161         1145.7473    1140.8734   0.0008613264 
  1182         1145.6218    1140.6565   0.0008460237 
  1175         1145.4995    1140.4402   0.0008510638 
  1185         1145.3805    1140.2244   0.0008438819 
  1153         1145.2648    1140.0092   0.0008673027 
  1123         1145.1525    1139.7945   0.000890472 
  1131         1145.0438    1139.5803   0.0008841733 
  1195         1144.9388    1139.3666   0.0008368201 
  1170         1144.8375    1139.1535   0.0008547009 
  1148         1144.7403    1138.9409   0.0008710801 
  1204         1144.647     1138.7289   0.0008305648 
  1147         1144.558     1138.5173   0.0008718396 
  1114         1144.4734    1138.3063   0.0008976661 
  1163         1144.3934    1138.0958   0.0008598452 
  1141         1144.318     1137.8858   0.0008764242 
  1146         1144.2475    1137.6764   0.0008726003 
  1149         1144.1822    1137.4675   0.000870322 
  1185         1144.122     1137.259    0.0008438819 
  1172         1144.0674    1137.0512   0.0008532423 
  1182         1144.0185    1136.8438   0.0008460237 
  1139         1143.9756    1136.6369   0.0008779631 
  1160         1143.9389    1136.4306   0.000862069 
  1133         1143.9086    1136.2248   0.0008826125 
  1143         1143.8851    1136.0194   0.0008748906 
  1173         1143.8687    1135.8146   0.0008525149 
  1183         1143.8596    1135.6104   0.0008453085 
  1160         1143.8583    1135.4066   0.000862069 
  1135         1143.865     1135.2033   0.0008810573 
  1199         1143.8801    1135.0005   0.0008340284 
  1111         1143.9041    1134.7983   0.00090009 
  1166         1143.9374    1134.5965   0.0008576329 
  1148         1143.9805    1134.3953   0.0008710801 
  1104         1144.0337    1134.1945   0.0009057971 
  1147         1144.0978    1133.9943   0.0008718396 
  1175         1144.1731    1133.7945   0.0008510638 
  1234         1144.2604    1133.5953   0.0008103728 
  1177         1145.8612    1133.3965   0.0008496177 
  1237         1145.9847    1133.1983   0.0008084074 
  1155         1146.1223    1133.0005   0.0008658009 
  1086         1146.2748    1132.8032   0.0009208103 
  1172         1146.443     1132.6065   0.0008532423 
  1128         1146.6279    1132.4102   0.0008865248 
  1188         1146.8304    1132.2144   0.0008417508 
  1134         1147.0516    1132.0191   0.0008818342 
  1182         1147.2926    1131.8243   0.0008460237 
  1153         1148.3023    1131.6299   0.0008673027 
  1107         1148.5921    1131.4361   0.0009033424 
  1193         1148.9059    1131.2427   0.000838223 
  1093         1149.2451    1131.0498   0.0009149131 
  1178         1149.6116    1130.8574   0.0008488964 
  1153         1150.0073    1130.6655   0.0008673027 
  1177         1150.434     1130.4741   0.0008496177 
  1158         1150.8941    1130.2831   0.0008635579 
  1132         1151.3901    1130.0926   0.0008833922 
  1194         1151.9246    1129.9026   0.0008375209 
  1167         1152.5003    1129.713    0.000856898 
  1091         1153.1207    1129.5239   0.0009165903 
  1176         1153.7892    1129.3353   0.0008503401 
  1182         1154.5097    1129.1472   0.0008460237 
  1179         1155.2863    1128.9595   0.0008481764 
  1223         1156.1242    1128.7723   0.0008176615 
  1162         1157.0284    1128.5855   0.0008605852 
  1172         1158.0048    1128.3992   0.0008532423 
  1156         1159.0596    1128.2134   0.0008650519 
  1179         1160.2008    1128.028    0.0008481764 
  1195         1161.4363    1127.8431   0.0008368201 
  1205         1162.7749    1127.6587   0.0008298755 
  1145         1164.2275    1127.4747   0.0008733624 
  1175         1165.8057    1127.2911   0.0008510638 
  1166         1167.5228    1127.108    0.0008576329 
  1168         1169.3935    1126.9253   0.0008561644 
  1220         1171.4355    1126.7431   0.0008196721 
  1221         1173.6687    1126.5614   0.0008190008 
  1257         1176.1155    1126.3801   0.0007955449 
  1218         1178.8015    1126.1992   0.0008210181 
  1141         1181.7583    1126.0188   0.0008764242 
  1207         1185.0209    1125.8388   0.0008285004 
  1161         1188.6309    1125.6592   0.0008613264 
  1120         1192.6358    1125.4801   0.0008928571 
  1125         1197.0957    1125.3014   0.0008888889 
  1177         1202.0785    1125.1231   0.0008496177 
  1212         1207.6654    1124.9453   0.0008250825 
  1179         1213.9584    1124.7679   0.0008481764 
  1220         1221.0782    1124.591    0.0008196721 
  1247         1229.1733    1124.4144   0.0008019246 
  1315         1238.4258    1124.2383   0.0007604563 
  1215         1249.0693    1124.0626   0.0008230453 
  1303         1261.3936    1123.8873   0.0007674597 
  1306         1275.7699    1123.7125   0.0007656968 
  1361         1292.675     1123.5381   0.0007347539 
  1493         1312.7476    1123.364    0.0006697924 
  1420         1336.8284    1123.1904   0.0007042254 
  1447         1366.0623    1123.0172   0.000691085 
  1473         1402.0272    1122.8444   0.0006788866 
  1492         1446.9921    1122.6721   0.0006702413 
  1424         1504.2261    1122.5001   0.0007022472 
  1518         1578.6237    1122.3285   0.0006587615 
  1552         1677.8549    1122.1574   0.0006443299 
  1675         1814.4621    1121.9866   0.0005970149 
  1739         2011.997     1121.8162   0.0005750431 
  2103         2328.11      1121.6463   0.0004755112 
  2726         2934.8997    1121.4767   0.0003668379 
  3969         4282.4855    1121.3075   0.0002519526 
  6479         7140.6659    1121.1387   0.0001543448 
  10710        11977.7029   1120.9703   0.0000933707 
  15631        17261.2503   1120.8023   0.0000639754 
  18222        17950.0805   1120.6347   0.0000548787 
  15229        13186.4998   1120.4674   0.0000656642 
  9443         8177.839     1120.3006   0.0001058985 
  5234         5147.2651    1120.1341   0.0001910585 
  3645         3939.9069    1119.968    0.0002743484 
  3501         4025.3313    1119.8023   0.0002856327 
  4566         5279.5904    1119.6369   0.0002190101 
  6472         7627.4428    1119.4719   0.0001545117 
  8907         9912.4573    1119.3073   0.0001122712 
  9880         9510.7846    1119.1431   0.0001012146 
  8024         6818.9938    1118.9792   0.0001246261 
  5018         4353.8036    1118.8157   0.0001992826 
  3228         2887.6512    1118.6525   0.0003097893 
  2176         2185.5136    1118.4897   0.0004595588 
  1808         1860.3772    1118.3273   0.0005530973 
  1620         1684.9449    1118.1652   0.000617284 
  1541         1571.9866    1118.0034   0.0006489293 
  1461         1491.8494    1117.842    0.0006844627 
  1393         1432.2461    1117.681    0.0007178751 
  1320         1386.5101    1117.5203   0.0007575758 
  1391         1350.5548    1117.36     0.0007189073 
  1287         1321.7133    1117.2      0.0007770008 
  1302         1298.1646    1117.0403   0.0007680492 
  1273         1278.6569    1116.881    0.000785546 
  1255         1262.2908    1116.722    0.0007968127 
  1251         1248.4066    1116.5633   0.0007993605 
  1234         1236.5094    1116.405    0.0008103728 
  1323         1226.2279    1116.247    0.0007558579 
  1177         1217.2744    1116.0893   0.0008496177 
  1219         1209.4227    1115.932    0.0008203445 
  1191         1202.4924    1115.7749   0.0008396306 
  1178         1196.3414    1115.6182   0.0008488964 
  1202         1190.8541    1115.4618   0.0008319468 
  1216         1185.9352    1115.3058   0.0008223684 
  1204         1181.5056    1115.15     0.0008305648 
  1224         1177.5011    1114.9946   0.0008169935 
  1282         1173.8676    1114.8394   0.0007800312 
  1243         1170.5589    1114.6846   0.0008045052 
  1230         1167.5359    1114.53     0.0008130081 
  1198         1164.7657    1114.3758   0.0008347245 
  1137         1162.2207    1114.2219   0.0008795075 
  1143         1159.8752    1114.0682   0.0008748906 
  1123         1157.7087    1113.9149   0.000890472 
  1197         1155.703     1113.7618   0.0008354219 
  1135         1153.8419    1113.609    0.0008810573 
  1141         1152.1111    1113.4566   0.0008764242 
  1176         1150.4985    1113.3044   0.0008503401 
  1116         1148.9936    1113.1524   0.0008960573 
  1106         1147.5863    1113.0008   0.0009041591 
  1156         1146.268     1112.8494   0.0008650519 
  1128         1145.0314    1112.6984   0.0008865248 
  1180         1143.8697    1112.5475   0.0008474576 
  1152         1142.7767    1112.397    0.0008680556 
  1196         1141.747     1112.2467   0.0008361204 
  1144         1140.7757    1112.0967   0.0008741259 
  1131         1139.8586    1111.9469   0.0008841733 
  1174         1138.9913    1111.7974   0.0008517888 
  1178         1138.1705    1111.6482   0.0008488964 
  1129         1137.393     1111.4992   0.0008857396 
  1138         1136.6557    1111.3505   0.0008787346 
  1145         1135.9559    1111.202    0.0008733624 
  1171         1135.2911    1111.0537   0.000853971 
  1139         1134.6594    1110.9057   0.0008779631 
  1136         1134.0584    1110.758    0.0008802817 
  1113         1133.4863    1110.6105   0.0008984726 
  1105         1132.9414    1110.4632   0.0009049774 
  1168         1132.4223    1110.3161   0.0008561644 
  1136         1131.9274    1110.1693   0.0008802817 
  1121         1131.4554    1110.0227   0.0008920607 
  1086         1131.0051    1109.8763   0.0009208103 
  1147         1130.5754    1109.7302   0.0008718396 
  1136         1130.1652    1109.5842   0.0008802817 
  1108         1129.7736    1109.4385   0.0009025271 
  1113         1129.3998    1109.293    0.0008984726 
  1133         1129.0429    1109.1477   0.0008826125 
  1145         1128.7022    1109.0026   0.0008733624 
  1163         1128.3769    1108.8577   0.0008598452 
  1089         1128.0666    1108.713    0.0009182736 
  1123         1127.7705    1108.5686   0.000890472 
  1119         1127.4881    1108.4243   0.000893655 
  1128         1127.219     1108.2802   0.0008865248 
  1108         1126.9627    1108.1363   0.0009025271 
  1167         1126.7187    1107.9926   0.000856898 
  1146         1126.4867    1107.849    0.0008726003 
  1099         1126.2664    1107.7057   0.0009099181 
  1151         1126.0573    1107.5625   0.0008688097 
  1165         1125.8593    1107.4195   0.0008583691 
  1142         1125.672     1107.2767   0.0008756567 
  1154         1125.4951    1107.134    0.0008665511 
  1164         1125.3286    1106.9916   0.0008591065 
  1210         1125.1721    1106.8492   0.0008264463 
  1165         1125.0255    1106.7071   0.0008583691 
  1173         1124.8887    1106.5651   0.0008525149 
  1137         1124.7614    1106.4232   0.0008795075 
  1181         1124.6436    1106.2815   0.0008467401 
  1207         1124.5352    1106.14     0.0008285004 
  1191         1124.4362    1105.9986   0.0008396306 
  1189         1124.3463    1105.8573   0.0008410429 
  1228         1124.2656    1105.7162   0.0008143322 
  1148         1124.1941    1105.5752   0.0008710801 
  1147         1124.1317    1105.4344   0.0008718396 
  1177         1124.0784    1105.2937   0.0008496177 
  1173         1124.0343    1105.1531   0.0008525149 
  1157         1123.9994    1105.0126   0.0008643042 
  1188         1123.9736    1104.8723   0.0008417508 
  1187         1123.9572    1104.732    0.00084246 
  1148         1123.9501    1104.5919   0.0008710801 
  1135         1123.9524    1104.4519   0.0008810573 
  1086         1123.9642    1104.312    0.0009208103 
  1148         1123.9858    1104.1723   0.0008710801 
  1124         1124.0171    1104.0326   0.0008896797 
  1214         1124.0583    1103.893    0.0008237232 
  1113         1124.1097    1103.7535   0.0008984726 
  1149         1124.1713    1103.6141   0.000870322 
  1213         1124.2435    1103.4748   0.0008244023 
  1197         1124.3263    1103.3356   0.0008354219 
  1240         1124.4201    1103.1964   0.0008064516 
  1149         1124.5251    1103.0574   0.000870322 
  1164         1124.6416    1102.9184   0.0008591065 
  1203         1124.7698    1102.7795   0.0008312552 
  1176         1124.9102    1102.6406   0.0008503401 
  1164         1125.0629    1102.5018   0.0008591065 
  1142         1125.2285    1102.3631   0.0008756567 
  1142         1125.4072    1102.2245   0.0008756567 
  1147         1125.5995    1102.0858   0.0008718396 
  1159         1125.8059    1101.9473   0.0008628128 
  1203         1126.0268    1101.8088   0.0008312552 
  1158         1126.2626    1101.6703   0.0008635579 
  1218         1126.5139    1101.5319   0.0008210181 
  1207         1126.7814    1101.3935   0.0008285004 
  1188         1127.0654    1101.2552   0.0008417508 
  1204         1127.3669    1101.1169   0.0008305648 
  1137         1127.6864    1100.9786   0.0008795075 
  1159         1128.0245    1100.8403   0.0008628128 
  1190         1128.3821    1100.7021   0.0008403361 
  1110         1128.76      1100.5639   0.0009009009 
  1177         1129.1591    1100.4257   0.0008496177 
  1172         1129.5803    1100.2875   0.0008532423 
  1117         1130.0243    1100.1493   0.0008952551 
  1164         1130.4926    1100.0111   0.0008591065 
  1147         1130.9861    1099.8729   0.0008718396 
  1169         1131.506     1099.7347   0.000855432 
  1117         1132.0534    1099.5965   0.0008952551 
  1166         1132.6299    1099.4583   0.0008576329 
  1132         1133.2369    1099.32     0.0008833922 
  1219         1133.8758    1099.1818   0.0008203445 
  1212         1134.5481    1099.0435   0.0008250825 
  1145         1135.256     1098.9052   0.0008733624 
  1165         1136.0011    1098.7669   0.0008583691 
  1198         1136.7853    1098.6285   0.0008347245 
  1160         1137.6111    1098.4901   0.000862069 
  1192         1138.4806    1098.3517   0.0008389262 
  1179         1139.3963    1098.2132   0.0008481764 
  1135         1140.3606    1098.0746   0.0008810573 
  1193         1141.377     1097.936    0.000838223 
  1168         1142.4483    1097.7974   0.0008561644 
  1226         1143.5777    1097.6587   0.0008156607 
  1198         1144.7687    1097.5199   0.0008347245 
  1167         1146.0257    1097.3811   0.000856898 
  1195         1147.3527    1097.2421   0.0008368201 
  1153         1148.7543    1097.1032   0.0008673027 
  1157         1150.2349    1096.9641   0.0008643042 
  1159         1151.8008    1096.8249   0.0008628128 
  1182         1153.4575    1096.6857   0.0008460237 
  1113         1155.2108    1096.5464   0.0008984726 
  1186         1157.0688    1096.4069   0.0008431703 
  1213         1159.0385    1096.2674   0.0008244023 
  1189         1161.1283    1096.1278   0.0008410429 
  1157         1163.3467    1095.988    0.0008643042 
  1218         1165.705     1095.8482   0.0008210181 
  1135         1168.2136    1095.7082   0.0008810573 
  1188         1170.8847    1095.5681   0.0008417508 
  1184         1173.7309    1095.4279   0.0008445946 
  1130         1176.7687    1095.2876   0.0008849558 
  1198         1180.0137    1095.1471   0.0008347245 
  1215         1183.4843    1095.0065   0.0008230453 
  1217         1187.1999    1094.8657   0.0008216927 
  1168         1191.1852    1094.7249   0.0008561644 
  1196         1195.4648    1094.5838   0.0008361204 
  1204         1200.0664    1094.4426   0.0008305648 
  1151         1205.0237    1094.3013   0.0008688097 
  1205         1210.3728    1094.1598   0.0008298755 
  1171         1216.1546    1094.0181   0.000853971 
  1220         1222.4142    1093.8763   0.0008196721 
  1250         1229.2082    1093.7342   0.0008    
  1271         1236.5959    1093.592    0.0007867821 
  1180         1244.6475    1093.4497   0.0008474576 
  1231         1253.4414    1093.3071   0.0008123477 
  1258         1263.0756    1093.1644   0.0007949126 
  1226         1273.6567    1093.0214   0.0008156607 
  1223         1285.312     1092.8783   0.0008176615 
  1238         1298.1875    1092.7349   0.0008077544 
  1278         1312.4661    1092.5914   0.0007824726 
  1259         1328.3547    1092.4476   0.0007942812 
  1289         1346.1042    1092.3036   0.0007757952 
  1372         1366.0117    1092.1594   0.000728863 
  1394         1388.4538    1092.015    0.0007173601 
  1413         1413.8742    1091.8703   0.0007077141 
  1464         1442.8187    1091.7254   0.0006830601 
  1573         1475.9907    1091.5803   0.0006357279 
  1701         1514.2504    1091.4349   0.0005878895 
  1839         1558.7013    1091.2893   0.0005437738 
  1783         1610.7516    1091.1434   0.0005608525 
  1842         1672.2848    1090.9973   0.0005428882 
  1866         1745.7541    1090.8509   0.0005359057 
  1873         1834.4866    1090.7043   0.0005339028 
  1928         1943.0306    1090.5574   0.0005186722 
  2005         2077.876     1090.4102   0.0004987531 
  2015         2248.276     1090.2627   0.0004962779 
  2061         2467.9859    1090.1149   0.0004852014 
  2263         2758.0025    1089.9669   0.0004418913 
  2480         3152.2753    1089.8185   0.0004032258 
  2723         3710.3412    1089.6699   0.000367242 
  3401         4561.9189    1089.521    0.0002940312 
  4823         6066.8283    1089.3717   0.0002073398 
  7572         9204.4215    1089.2222   0.0001320655 
  13429        15926.2767   1089.0723   0.0000744657 
  23550        28253.7066   1088.9221   0.0000424628 
  37987        44691.1909   1088.7716   0.0000263248 
  46677        53562.2715   1088.6208   0.0000214238 
  42145        43658.7408   1088.4696   0.0000237276 
  27500        27602.4678   1088.3181   0.0000363636 
  14540        16142.2209   1088.1662   0.0000687758 
  8266         10370.0168   1088.014    0.0001209775 
  6345         8457.6351    1087.8614   0.0001576044 
  7290         9216.9704    1087.7085   0.0001371742 
  10066        12848.6643   1087.5552   0.0000993443 
  15515        19618.0714   1087.4016   0.0000644538 
  21744        26911.9771   1087.2475   0.0000459897 
  24200        27063.6391   1087.0931   0.0000413223 
  19786        19474.5672   1086.9383   0.0000505408 
  12617        11839.8392   1086.7832   0.0000792581 
  6911         7065.4795    1086.6276   0.0001446969 
  4217         4675.4892    1086.4716   0.0002371354 
  3010         3546.3224    1086.3153   0.0003322259 
  2503         2944.177     1086.1585   0.0003995206 
  2206         2563.4354    1086.0013   0.0004533092 
  1938         2296.1555    1085.8437   0.0005159959 
  1906         2098.6486    1085.6857   0.000524659 
  1749         1947.8846    1085.5272   0.0005717553 
  1731         1829.8799    1085.3683   0.0005777008 
  1692         1735.5105    1085.209    0.0005910165 
  1636         1658.7127    1085.0493   0.0006112469 
  1584         1595.2597    1084.8891   0.0006313131 
  1435         1542.1545    1084.7284   0.0006968641 
  1352         1497.1781    1084.5673   0.000739645 
  1404         1458.7139    1084.4057   0.0007122507 
  1278         1425.5341    1084.2436   0.0007824726 
  1311         1396.6719    1084.0811   0.0007627765 
  1315         1371.3941    1083.9181   0.0007604563 
  1210         1349.1138    1083.7546   0.0008264463 
  1206         1329.3663    1083.5907   0.0008291874 
  1276         1311.7623    1083.4262   0.0007836991 
  1252         1295.9975    1083.2612   0.000798722 
  1267         1281.8168    1083.0958   0.000789266 
  1225         1269.0116    1082.9298   0.0008163265 
  1250         1257.3987    1082.7633   0.0008    
  1227         1246.8327    1082.5963   0.0008149959 
  1221         1237.1874    1082.4287   0.0008190008 
  1222         1228.3574    1082.2607   0.0008183306 
  1183         1220.2466    1082.0921   0.0008453085 
  1212         1212.7779    1081.9229   0.0008250825 
  1156         1205.8836    1081.7532   0.0008650519 
  1237         1199.5034    1081.583    0.0008084074 
  1201         1193.5846    1081.4122   0.0008326395 
  1179         1188.0827    1081.2408   0.0008481764 
  1195         1182.9589    1081.0689   0.0008368201 
  1199         1178.1754    1080.8964   0.0008340284 
  1171         1173.7024    1080.7233   0.000853971 
  1203         1169.5122    1080.5496   0.0008312552 
  1123         1165.5811    1080.3754   0.000890472 
  1198         1161.8852    1080.2005   0.0008347245 
  1147         1158.4059    1080.0251   0.0008718396 
  1132         1155.1253    1079.849    0.0008833922 
  1185         1152.0285    1079.6723   0.0008438819 
  1154         1149.0995    1079.495    0.0008665511 
  1139         1146.3261    1079.3171   0.0008779631 
  1189         1143.6968    1079.1386   0.0008410429 
  1222         1141.2013    1078.9594   0.0008183306 
  1113         1138.8288    1078.7796   0.0008984726 
  1186         1136.5712    1078.5991   0.0008431703 
  1194         1134.4209    1078.418    0.0008375209 
  1194         1132.3695    1078.2362   0.0008375209 
  1121         1130.4108    1078.0538   0.0008920607 
  1130         1128.5387    1077.8707   0.0008849558 
  1115         1126.7479    1077.6869   0.000896861 
  1125         1125.0323    1077.5025   0.0008888889 
  1093         1123.3876    1077.3173   0.0009149131 
  1144         1121.8093    1077.1315   0.0008741259 
  1121         1120.2938    1076.945    0.0008920607 
  1148         1118.8365    1076.7577   0.0008710801 
  1204         1117.4342    1076.5698   0.0008305648 
  1145         1116.0838    1076.3811   0.0008733624 
  1153         1114.7824    1076.1918   0.0008673027 
  1162         1113.5268    1076.0017   0.0008605852 
  1209         1112.3146    1075.8108   0.0008271299 
  1168         1111.1435    1075.6193   0.0008561644 
  1202         1110.0111    1075.4269   0.0008319468 
  1215         1108.9152    1075.2339   0.0008230453 
  1167         1107.854     1075.04     0.000856898 
  1138         1106.8257    1074.8455   0.0008787346 
  1143         1105.8283    1074.6501   0.0008748906 
  1174         1104.8603    1074.454    0.0008517888 
  1160         1103.9203    1074.2571   0.000862069 
  1162         1103.007     1074.0594   0.0008605852 
  1122         1102.1187    1073.8609   0.0008912656 
  1186         1101.2543    1073.6616   0.0008431703 
  1157         1100.4126    1073.4615   0.0008643042 
  1192         1099.5927    1073.2606   0.0008389262 
  1156         1098.7933    1073.0589   0.0008650519 
  1135         1098.0134    1072.8564   0.0008810573 
  1161         1097.2522    1072.653    0.0008613264 
  1184         1096.509     1072.4488   0.0008445946 
  1167         1095.7825    1072.2438   0.000856898 
  1190         1095.0723    1072.0379   0.0008403361 
  1141         1094.3776    1071.8312   0.0008764242 
  1187         1093.6974    1071.6236   0.00084246 
  1158         1093.0314    1071.4151   0.0008635579 
  1169         1092.3787    1071.2058   0.000855432 
  1148         1091.739     1070.9956   0.0008710801 
  1160         1091.1115    1070.7845   0.000862069 
  1088         1090.4956    1070.5725   0.0009191176 
  1169         1089.891     1070.3596   0.000855432 
  1159         1089.2972    1070.1458   0.0008628128 
  1102         1088.7135    1069.9311   0.000907441 
  1172         1088.1396    1069.7155   0.0008532423 
  1069         1087.5751    1069.499    0.0009354537 
  1139         1087.0197    1069.2815   0.0008779631 
  1137         1086.4729    1069.0631   0.0008795075 
  1148         1085.9342    1068.8438   0.0008710801 
  1150         1085.4035    1068.6235   0.0008695652 
  1164         1084.8804    1068.4022   0.0008591065 
  1145         1084.3644    1068.18     0.0008733624 
  1133         1083.8554    1067.9568   0.0008826125 
  1124         1083.3531    1067.7327   0.0008896797 
  1149         1082.8572    1067.5076   0.000870322 
  1114         1082.3673    1067.2814   0.0008976661 
  1185         1081.8833    1067.0543   0.0008438819 
  1155         1081.405     1066.8262   0.0008658009 
  1180         1080.9319    1066.5971   0.0008474576 
  1118         1080.4641    1066.367    0.0008944544 
  1138         1080.0012    1066.1358   0.0008787346 
  1165         1079.543     1065.9036   0.0008583691 
  1110         1079.0894    1065.6704   0.0009009009 
#--eof--eof--eof--eof--eof--eof--eof--eof--eof--eof--eof--eof--eof--eof--eof--#
