
data_demo_publ
_audit_creation_method  "created in GSAS-II"
_audit_creation_date  2019-11-04T12:11
_audit_update_record
   "2019-11-04T12:11  Initial software-generated CIF"
_pd_block_id  2019-11-04T12:11|demo||Overall
# GSAS-II edited template follows Publication_Template
#=============================================================================
# this information describes the project, paper etc. for the CIF             #
# Acta Cryst. Section C papers and editorial correspondence is generated     #
# from the information in this section                                       #
#                                                                            #
#   (from)   CIF submission form for Rietveld refinements (Acta Cryst. C)    #
#                                                 Version 14 December 1998   #
#=============================================================================
# 1. SUBMISSION DETAILS

_publ_contact_author_name            ?   # Name of author for correspondence
_publ_contact_author_address             # Address of author for correspondence
; ?
;
_publ_contact_author_email           ?
_publ_contact_author_fax             ?
_publ_contact_author_phone           ?

_publ_contact_letter
; ?
;
   
_publ_requested_journal              ?
_publ_requested_coeditor_name        ?
_publ_requested_category             ?   # Acta C: one of CI/CM/CO/FI/FM/FO

#==============================================================================

# 2. PROCESSING SUMMARY (IUCr Office Use Only)

_journal_data_validation_number      ?

_journal_date_recd_electronic        ?
_journal_date_to_coeditor            ?
_journal_date_from_coeditor          ?
_journal_date_accepted               ?
_journal_date_printers_first         ?
_journal_date_printers_final         ?
_journal_date_proofs_out             ?
_journal_date_proofs_in              ?
_journal_coeditor_name               ?
_journal_coeditor_code               ?
_journal_coeditor_notes
; ?
;
_journal_techeditor_code             ?
_journal_techeditor_notes
; ?
;
_journal_coden_ASTM                  ?
_journal_name_full                   ?
_journal_year                        ?
_journal_volume                      ?
_journal_issue                       ?
_journal_page_first                  ?
_journal_page_last                   ?
_journal_paper_category              ?
_journal_suppl_publ_number           ?
_journal_suppl_publ_pages            ?

#==============================================================================

# 3. TITLE AND AUTHOR LIST

_publ_section_title
; ?
;
_publ_section_title_footnote
; ?
;         
 
# The loop structure below should contain the names and addresses of all 
# authors, in the required order of publication. Repeat as necessary.

loop_
	_publ_author_name
        _publ_author_footnote
	_publ_author_address
 ?                                   #<--'Last name, first name' 
; ?
;
; ?
;

#==============================================================================

# 4. TEXT

_publ_section_synopsis
;  ?
;
_publ_section_abstract                         
; ?
;          
_publ_section_comment                          
; ?
;
_publ_section_exptl_prep      # Details of the preparation of the sample(s)
                              # should be given here. 
; ?
;
_publ_section_exptl_refinement                  
; ?
;
_publ_section_references
; ?
;
_publ_section_figure_captions
; ?
;
_publ_section_acknowledgements
; ?
;

#=============================================================================
# 5. OVERALL REFINEMENT & COMPUTING DETAILS

_refine_special_details
; ?
;
_pd_proc_ls_special_details
; ?
;

# The following items are used to identify the programs used.
_computing_molecular_graphics     ?
_computing_publication_material   ?

_refine_ls_weighting_scheme       ?        
_refine_ls_weighting_details      ?
_refine_ls_hydrogen_treatment     ?        
_refine_ls_extinction_method      ?        
_refine_ls_extinction_coef        ?         
_refine_ls_number_constraints     ?        

_refine_ls_restrained_S_all       ?        
_refine_ls_restrained_S_obs       ?

#==============================================================================
# 6. SAMPLE PREPARATION DATA

# (In the unusual case where multiple samples are used in a single
#  Rietveld study, this information should be moved into the phase
#  blocks)

# The following three fields describe the preparation of the material.
# The cooling rate is in K/min.  The pressure at which the sample was  
# prepared is in kPa.  The temperature of preparation is in K.
               
_pd_prep_cool_rate                ?        
_pd_prep_pressure                 ?        
_pd_prep_temperature              ?        

_pd_char_colour                   ?       # use ICDD colour descriptions

data_demo_overall
_pd_proc_info_datetime  2019-11-04T12:11
_pd_calc_method  "Rietveld Refinement"
_computing_structure_refinement
   "GSAS-II (Toby & Von Dreele, J. Appl. Cryst. 46, 544-549, 2013)"
_refine_ls_number_parameters  40
_refine_ls_goodness_of_fit_all  1.775

# OVERALL WEIGHTED R-FACTOR
_refine_ls_wR_factor_obs  0.05000
_refine_ls_matrix_type  full
# POINTERS TO PHASE AND HISTOGRAM BLOCKS
loop_   _pd_phase_block_id
  2019-11-04T12:11|demo|phase_0|
  2019-11-04T12:11|demo|phase_1|
_pd_block_diffractogram_id  2019-11-04T12:11|demo||a_hist_0

data_demo_phase_0
# Information for phase 0
_pd_block_id  2019-11-04T12:11|demo|phase_0|
# GSAS-II edited template follows Phase_Template
#==============================================================================
# 7. CHEMICAL, STRUCTURAL AND CRYSTAL DATA

_pd_char_particle_morphology      ?

_chemical_name_systematic
; ?
;
_chemical_name_common             ?
_chemical_formula_moiety          ?        
_chemical_formula_structural      ?        
_chemical_formula_analytical      ?
_chemical_melting_point           ?
_chemical_compound_source         ?       # for minerals and 
                                          # natural products
_symmetry_space_group_name_Hall   ?

_exptl_crystal_F_000               ?
_exptl_crystal_density_meas        ?
_exptl_crystal_density_method      ?

_cell_measurement_temperature     ?        

_cell_special_details
; ?
;

_geom_special_details             ?

# The following item identifies the program(s) used (if appropriate).
_computing_structure_solution     ?        

#==============================================================================

# 8. Phase information from GSAS



# phase info for Co O follows
_pd_phase_name  "Co O"
_cell_length_a  4.26612(13)
_cell_length_b  4.26612(13)
_cell_length_c  4.26612(13)
_cell_angle_alpha  90
_cell_angle_beta   90
_cell_angle_gamma  90
_cell_volume  77.643(7)
_exptl_crystal_density_diffrn  6.4103
_symmetry_cell_setting  cubic
_symmetry_space_group_name_H-M  "F m -3 m"
loop_
    _space_group_symop_id
    _space_group_symop_operation_xyz
     1  x,y,z
     2  z,x,y
     3  y,z,x
     4  x,y,-z
     5  -z,x,y
     6  y,-z,x
     7  -z,x,-y
     8  -y,-z,x
     9  y,-z,-x
    10  -x,y,-z
    11  -z,-x,y
    12  x,-y,-z
    13  y,x,z
    14  z,y,x
    15  x,z,y
    16  y,x,-z
    17  -z,y,x
    18  x,-z,y
    19  -z,y,-x
    20  -x,-z,y
    21  x,-z,-y
    22  -y,x,-z
    23  -z,-y,x
    24  y,-x,-z
    25  -x,-y,-z
    26  -z,-x,-y
    27  -y,-z,-x
    28  -x,-y,z
    29  z,-x,-y
    30  -y,z,-x
    31  z,-x,y
    32  y,z,-x
    33  -y,z,x
    34  x,-y,z
    35  z,x,-y
    36  -x,y,z
    37  -y,-x,-z
    38  -z,-y,-x
    39  -x,-z,-y
    40  -y,-x,z
    41  z,-y,-x
    42  -x,z,-y
    43  z,-y,x
    44  x,z,-y
    45  -x,z,y
    46  y,-x,z
    47  z,y,-x
    48  -y,x,z
    49  x,1/2+y,1/2+z
    50  z,1/2+x,1/2+y
    51  y,1/2+z,1/2+x
    52  x,1/2+y,1/2-z
    53  -z,1/2+x,1/2+y
    54  y,1/2-z,1/2+x
    55  -z,1/2+x,1/2-y
    56  -y,1/2-z,1/2+x
    57  y,1/2-z,1/2-x
    58  -x,1/2+y,1/2-z
    59  -z,1/2-x,1/2+y
    60  x,1/2-y,1/2-z
    61  y,1/2+x,1/2+z
    62  z,1/2+y,1/2+x
    63  x,1/2+z,1/2+y
    64  y,1/2+x,1/2-z
    65  -z,1/2+y,1/2+x
    66  x,1/2-z,1/2+y
    67  -z,1/2+y,1/2-x
    68  -x,1/2-z,1/2+y
    69  x,1/2-z,1/2-y
    70  -y,1/2+x,1/2-z
    71  -z,1/2-y,1/2+x
    72  y,1/2-x,1/2-z
    73  -x,1/2-y,1/2-z
    74  -z,1/2-x,1/2-y
    75  -y,1/2-z,1/2-x
    76  -x,1/2-y,1/2+z
    77  z,1/2-x,1/2-y
    78  -y,1/2+z,1/2-x
    79  z,1/2-x,1/2+y
    80  y,1/2+z,1/2-x
    81  -y,1/2+z,1/2+x
    82  x,1/2-y,1/2+z
    83  z,1/2+x,1/2-y
    84  -x,1/2+y,1/2+z
    85  -y,1/2-x,1/2-z
    86  -z,1/2-y,1/2-x
    87  -x,1/2-z,1/2-y
    88  -y,1/2-x,1/2+z
    89  z,1/2-y,1/2-x
    90  -x,1/2+z,1/2-y
    91  z,1/2-y,1/2+x
    92  x,1/2+z,1/2-y
    93  -x,1/2+z,1/2+y
    94  y,1/2-x,1/2+z
    95  z,1/2+y,1/2-x
    96  -y,1/2+x,1/2+z
    97  1/2+x,y,1/2+z
    98  1/2+z,x,1/2+y
    99  1/2+y,z,1/2+x
   100  1/2+x,y,1/2-z
   101  1/2-z,x,1/2+y
   102  1/2+y,-z,1/2+x
   103  1/2-z,x,1/2-y
   104  1/2-y,-z,1/2+x
   105  1/2+y,-z,1/2-x
   106  1/2-x,y,1/2-z
   107  1/2-z,-x,1/2+y
   108  1/2+x,-y,1/2-z
   109  1/2+y,x,1/2+z
   110  1/2+z,y,1/2+x
   111  1/2+x,z,1/2+y
   112  1/2+y,x,1/2-z
   113  1/2-z,y,1/2+x
   114  1/2+x,-z,1/2+y
   115  1/2-z,y,1/2-x
   116  1/2-x,-z,1/2+y
   117  1/2+x,-z,1/2-y
   118  1/2-y,x,1/2-z
   119  1/2-z,-y,1/2+x
   120  1/2+y,-x,1/2-z
   121  1/2-x,-y,1/2-z
   122  1/2-z,-x,1/2-y
   123  1/2-y,-z,1/2-x
   124  1/2-x,-y,1/2+z
   125  1/2+z,-x,1/2-y
   126  1/2-y,z,1/2-x
   127  1/2+z,-x,1/2+y
   128  1/2+y,z,1/2-x
   129  1/2-y,z,1/2+x
   130  1/2+x,-y,1/2+z
   131  1/2+z,x,1/2-y
   132  1/2-x,y,1/2+z
   133  1/2-y,-x,1/2-z
   134  1/2-z,-y,1/2-x
   135  1/2-x,-z,1/2-y
   136  1/2-y,-x,1/2+z
   137  1/2+z,-y,1/2-x
   138  1/2-x,z,1/2-y
   139  1/2+z,-y,1/2+x
   140  1/2+x,z,1/2-y
   141  1/2-x,z,1/2+y
   142  1/2+y,-x,1/2+z
   143  1/2+z,y,1/2-x
   144  1/2-y,x,1/2+z
   145  1/2+x,1/2+y,z
   146  1/2+z,1/2+x,y
   147  1/2+y,1/2+z,x
   148  1/2+x,1/2+y,-z
   149  1/2-z,1/2+x,y
   150  1/2+y,1/2-z,x
   151  1/2-z,1/2+x,-y
   152  1/2-y,1/2-z,x
   153  1/2+y,1/2-z,-x
   154  1/2-x,1/2+y,-z
   155  1/2-z,1/2-x,y
   156  1/2+x,1/2-y,-z
   157  1/2+y,1/2+x,z
   158  1/2+z,1/2+y,x
   159  1/2+x,1/2+z,y
   160  1/2+y,1/2+x,-z
   161  1/2-z,1/2+y,x
   162  1/2+x,1/2-z,y
   163  1/2-z,1/2+y,-x
   164  1/2-x,1/2-z,y
   165  1/2+x,1/2-z,-y
   166  1/2-y,1/2+x,-z
   167  1/2-z,1/2-y,x
   168  1/2+y,1/2-x,-z
   169  1/2-x,1/2-y,-z
   170  1/2-z,1/2-x,-y
   171  1/2-y,1/2-z,-x
   172  1/2-x,1/2-y,z
   173  1/2+z,1/2-x,-y
   174  1/2-y,1/2+z,-x
   175  1/2+z,1/2-x,y
   176  1/2+y,1/2+z,-x
   177  1/2-y,1/2+z,x
   178  1/2+x,1/2-y,z
   179  1/2+z,1/2+x,-y
   180  1/2-x,1/2+y,z
   181  1/2-y,1/2-x,-z
   182  1/2-z,1/2-y,-x
   183  1/2-x,1/2-z,-y
   184  1/2-y,1/2-x,z
   185  1/2+z,1/2-y,-x
   186  1/2-x,1/2+z,-y
   187  1/2+z,1/2-y,x
   188  1/2+x,1/2+z,-y
   189  1/2-x,1/2+z,y
   190  1/2+y,1/2-x,z
   191  1/2+z,1/2+y,-x
   192  1/2-y,1/2+x,z

# ATOMIC COORDINATES AND DISPLACEMENT PARAMETERS
loop_ 
   _atom_site_label
   _atom_site_type_symbol
   _atom_site_fract_x
   _atom_site_fract_y
   _atom_site_fract_z
   _atom_site_occupancy
   _atom_site_adp_type
   _atom_site_U_iso_or_equiv
   _atom_site_symmetry_multiplicity
CO1    Co   0.00000     0.00000     0.00000     1.000      Uani 0.000      4   
O1     O    0.50000     0.50000     0.50000     1.000      Uani 0.000      4   

loop_
   _atom_site_aniso_label
   _atom_site_aniso_U_11
   _atom_site_aniso_U_22
   _atom_site_aniso_U_33
   _atom_site_aniso_U_12
   _atom_site_aniso_U_13
   _atom_site_aniso_U_23
CO1    0.0000      0.0000      0.0000      0.0000      0.0000      0.0000      
O1     0.0000      0.0000      0.0000      0.0000      0.0000      0.0000      

loop_  _atom_type_symbol _atom_type_number_in_cell
  Co   4
  O    4

# Note that Z affects _cell_formula_sum and _weight
_cell_formula_units_Z  4
_chemical_formula_sum  "Co O"
_chemical_formula_weight  74.93

# MOLECULAR GEOMETRY
loop_
   _geom_bond_atom_site_label_1
   _geom_bond_atom_site_label_2
   _geom_bond_distance
   _geom_bond_site_symmetry_1
   _geom_bond_site_symmetry_2
   _geom_bond_publ_flag
  CO1    O1     2.13306      1_555   49_444 yes
  CO1    O1     2.13306      1_555   49_544 yes
  CO1    O1     2.13306      1_555   97_444 yes
  CO1    O1     2.13306      1_555   97_454 yes
  CO1    O1     2.13306      1_555  145_444 yes
  CO1    O1     2.13306      1_555  145_445 yes
  O1     CO1    2.13306      1_555   49_555 yes
  O1     CO1    2.13306      1_555   49_655 yes
  O1     CO1    2.13306      1_555   97_555 yes
  O1     CO1    2.13306      1_555   97_565 yes
  O1     CO1    2.13306      1_555  145_555 yes
  O1     CO1    2.13306      1_555  145_556 yes
_pd_proc_ls_pref_orient_corr
   "March-Dollase correction coef. = 1.000 axis = [0, 0, 1]"
_pd_proc_ls_profile_function
;
  Crystallite size in microns with "isotropic" model:
  parameters: Size, G/L mix
    1.000, 1.000, 
  Microstrain, "isotropic" model (10^6^ * delta Q/Q)
    parameters: Mustrain, G/L mix
    1000.000, 1.000, 

;

data_demo_phase_1
# Information for phase 1
_pd_block_id  2019-11-04T12:11|demo|phase_1|
# GSAS-II edited template follows Phase_Template
#==============================================================================
# 7. CHEMICAL, STRUCTURAL AND CRYSTAL DATA

_pd_char_particle_morphology      ?

_chemical_name_systematic
; ?
;
_chemical_name_common             ?
_chemical_formula_moiety          ?        
_chemical_formula_structural      ?        
_chemical_formula_analytical      ?
_chemical_melting_point           ?
_chemical_compound_source         ?       # for minerals and 
                                          # natural products
_symmetry_space_group_name_Hall   ?

_exptl_crystal_F_000               ?
_exptl_crystal_density_meas        ?
_exptl_crystal_density_method      ?

_cell_measurement_temperature     ?        

_cell_special_details
; ?
;

_geom_special_details             ?

# The following item identifies the program(s) used (if appropriate).
_computing_structure_solution     ?        

#==============================================================================

# 8. Phase information from GSAS



# phase info for Co3 O4 follows
_pd_phase_name  "Co3 O4"
_cell_length_a  8.08884(29)
_cell_length_b  8.08884(29)
_cell_length_c  8.08884(29)
_cell_angle_alpha  90
_cell_angle_beta   90
_cell_angle_gamma  90
_cell_volume  529.25(6)
_exptl_crystal_density_diffrn  6.0441
_symmetry_cell_setting  cubic
_symmetry_space_group_name_H-M  "F d -3 m"
loop_
    _space_group_symop_id
    _space_group_symop_operation_xyz
     1  x,y,z
     2  z,x,y
     3  y,z,x
     4  1/4+x,1/4+y,-z
     5  -z,1/4+x,1/4+y
     6  1/4+y,-z,1/4+x
     7  1/4-z,1/2+x,3/4-y
     8  3/4-y,1/4-z,1/2+x
     9  1/2+y,1/4-z,3/4-x
    10  3/4-x,1/2+y,1/4-z
    11  1/4-z,3/4-x,1/2+y
    12  1/2+x,3/4-y,1/4-z
    13  y,x,z
    14  z,y,x
    15  x,z,y
    16  1/4+y,1/4+x,-z
    17  -z,1/4+y,1/4+x
    18  1/4+x,-z,1/4+y
    19  1/4-z,1/2+y,3/4-x
    20  3/4-x,1/4-z,1/2+y
    21  1/2+x,1/4-z,3/4-y
    22  3/4-y,1/2+x,1/4-z
    23  1/4-z,3/4-y,1/2+x
    24  1/2+y,3/4-x,1/4-z
    25  -x,-y,-z
    26  -z,-x,-y
    27  -y,-z,-x
    28  3/4-x,3/4-y,z
    29  z,3/4-x,3/4-y
    30  3/4-y,z,3/4-x
    31  3/4+z,1/2-x,1/4+y
    32  1/4+y,3/4+z,1/2-x
    33  1/2-y,3/4+z,1/4+x
    34  1/4+x,1/2-y,3/4+z
    35  3/4+z,1/4+x,1/2-y
    36  1/2-x,1/4+y,3/4+z
    37  -y,-x,-z
    38  -z,-y,-x
    39  -x,-z,-y
    40  3/4-y,3/4-x,z
    41  z,3/4-y,3/4-x
    42  3/4-x,z,3/4-y
    43  3/4+z,1/2-y,1/4+x
    44  1/4+x,3/4+z,1/2-y
    45  1/2-x,3/4+z,1/4+y
    46  1/4+y,1/2-x,3/4+z
    47  3/4+z,1/4+y,1/2-x
    48  1/2-y,1/4+x,3/4+z
    49  x,1/2+y,1/2+z
    50  z,1/2+x,1/2+y
    51  y,1/2+z,1/2+x
    52  1/4+x,3/4+y,1/2-z
    53  -z,3/4+x,3/4+y
    54  1/4+y,1/2-z,3/4+x
    55  1/4-z,x,1/4-y
    56  3/4-y,3/4-z,x
    57  1/2+y,3/4-z,1/4-x
    58  3/4-x,y,3/4-z
    59  1/4-z,1/4-x,y
    60  1/2+x,1/4-y,3/4-z
    61  y,1/2+x,1/2+z
    62  z,1/2+y,1/2+x
    63  x,1/2+z,1/2+y
    64  1/4+y,3/4+x,1/2-z
    65  -z,3/4+y,3/4+x
    66  1/4+x,1/2-z,3/4+y
    67  1/4-z,y,1/4-x
    68  3/4-x,3/4-z,y
    69  1/2+x,3/4-z,1/4-y
    70  3/4-y,x,3/4-z
    71  1/4-z,1/4-y,x
    72  1/2+y,1/4-x,3/4-z
    73  -x,1/2-y,1/2-z
    74  -z,1/2-x,1/2-y
    75  -y,1/2-z,1/2-x
    76  3/4-x,1/4-y,1/2+z
    77  z,1/4-x,1/4-y
    78  3/4-y,1/2+z,1/4-x
    79  3/4+z,-x,3/4+y
    80  1/4+y,1/4+z,-x
    81  1/2-y,1/4+z,3/4+x
    82  1/4+x,-y,1/4+z
    83  3/4+z,3/4+x,-y
    84  1/2-x,3/4+y,1/4+z
    85  -y,1/2-x,1/2-z
    86  -z,1/2-y,1/2-x
    87  -x,1/2-z,1/2-y
    88  3/4-y,1/4-x,1/2+z
    89  z,1/4-y,1/4-x
    90  3/4-x,1/2+z,1/4-y
    91  3/4+z,-y,3/4+x
    92  1/4+x,1/4+z,-y
    93  1/2-x,1/4+z,3/4+y
    94  1/4+y,-x,1/4+z
    95  3/4+z,3/4+y,-x
    96  1/2-y,3/4+x,1/4+z
    97  1/2+x,y,1/2+z
    98  1/2+z,x,1/2+y
    99  1/2+y,z,1/2+x
   100  3/4+x,1/4+y,1/2-z
   101  1/2-z,1/4+x,3/4+y
   102  3/4+y,-z,3/4+x
   103  3/4-z,1/2+x,1/4-y
   104  1/4-y,1/4-z,x
   105  y,1/4-z,1/4-x
   106  1/4-x,1/2+y,3/4-z
   107  3/4-z,3/4-x,y
   108  x,3/4-y,3/4-z
   109  1/2+y,x,1/2+z
   110  1/2+z,y,1/2+x
   111  1/2+x,z,1/2+y
   112  3/4+y,1/4+x,1/2-z
   113  1/2-z,1/4+y,3/4+x
   114  3/4+x,-z,3/4+y
   115  3/4-z,1/2+y,1/4-x
   116  1/4-x,1/4-z,y
   117  x,1/4-z,1/4-y
   118  1/4-y,1/2+x,3/4-z
   119  3/4-z,3/4-y,x
   120  y,3/4-x,3/4-z
   121  1/2-x,-y,1/2-z
   122  1/2-z,-x,1/2-y
   123  1/2-y,-z,1/2-x
   124  1/4-x,3/4-y,1/2+z
   125  1/2+z,3/4-x,1/4-y
   126  1/4-y,z,1/4-x
   127  1/4+z,1/2-x,3/4+y
   128  3/4+y,3/4+z,-x
   129  -y,3/4+z,3/4+x
   130  3/4+x,1/2-y,1/4+z
   131  1/4+z,1/4+x,-y
   132  -x,1/4+y,1/4+z
   133  1/2-y,-x,1/2-z
   134  1/2-z,-y,1/2-x
   135  1/2-x,-z,1/2-y
   136  1/4-y,3/4-x,1/2+z
   137  1/2+z,3/4-y,1/4-x
   138  1/4-x,z,1/4-y
   139  1/4+z,1/2-y,3/4+x
   140  3/4+x,3/4+z,-y
   141  -x,3/4+z,3/4+y
   142  3/4+y,1/2-x,1/4+z
   143  1/4+z,1/4+y,-x
   144  -y,1/4+x,1/4+z
   145  1/2+x,1/2+y,z
   146  1/2+z,1/2+x,y
   147  1/2+y,1/2+z,x
   148  3/4+x,3/4+y,-z
   149  1/2-z,3/4+x,1/4+y
   150  3/4+y,1/2-z,1/4+x
   151  3/4-z,x,3/4-y
   152  1/4-y,3/4-z,1/2+x
   153  y,3/4-z,3/4-x
   154  1/4-x,y,1/4-z
   155  3/4-z,1/4-x,1/2+y
   156  x,1/4-y,1/4-z
   157  1/2+y,1/2+x,z
   158  1/2+z,1/2+y,x
   159  1/2+x,1/2+z,y
   160  3/4+y,3/4+x,-z
   161  1/2-z,3/4+y,1/4+x
   162  3/4+x,1/2-z,1/4+y
   163  3/4-z,y,3/4-x
   164  1/4-x,3/4-z,1/2+y
   165  x,3/4-z,3/4-y
   166  1/4-y,x,1/4-z
   167  3/4-z,1/4-y,1/2+x
   168  y,1/4-x,1/4-z
   169  1/2-x,1/2-y,-z
   170  1/2-z,1/2-x,-y
   171  1/2-y,1/2-z,-x
   172  1/4-x,1/4-y,z
   173  1/2+z,1/4-x,3/4-y
   174  1/4-y,1/2+z,3/4-x
   175  1/4+z,-x,1/4+y
   176  3/4+y,1/4+z,1/2-x
   177  -y,1/4+z,1/4+x
   178  3/4+x,-y,3/4+z
   179  1/4+z,3/4+x,1/2-y
   180  -x,3/4+y,3/4+z
   181  1/2-y,1/2-x,-z
   182  1/2-z,1/2-y,-x
   183  1/2-x,1/2-z,-y
   184  1/4-y,1/4-x,z
   185  1/2+z,1/4-y,3/4-x
   186  1/4-x,1/2+z,3/4-y
   187  1/4+z,-y,1/4+x
   188  3/4+x,1/4+z,1/2-y
   189  -x,1/4+z,1/4+y
   190  3/4+y,-x,3/4+z
   191  1/4+z,3/4+y,1/2-x
   192  -y,3/4+x,3/4+z

# ATOMIC COORDINATES AND DISPLACEMENT PARAMETERS
loop_ 
   _atom_site_label
   _atom_site_type_symbol
   _atom_site_fract_x
   _atom_site_fract_y
   _atom_site_fract_z
   _atom_site_occupancy
   _atom_site_adp_type
   _atom_site_U_iso_or_equiv
   _atom_site_symmetry_multiplicity
O1     O    0.24450     0.24450     0.24450     1.000      Uani 0.000      32  
CO1    Co   0.00000     0.00000     0.00000     1.000      Uani 0.000      16  
CO2    Co   0.37500     0.37500     0.37500     1.000      Uani 0.000      8   

loop_
   _atom_site_aniso_label
   _atom_site_aniso_U_11
   _atom_site_aniso_U_22
   _atom_site_aniso_U_33
   _atom_site_aniso_U_12
   _atom_site_aniso_U_13
   _atom_site_aniso_U_23
O1     0.0000      0.0000      0.0000      0.0000      0.0000      0.0000      
CO1    0.0000      0.0000      0.0000      0.0000      0.0000      0.0000      
CO2    0.0000      0.0000      0.0000      0.0000      0.0000      0.0000      

loop_  _atom_type_symbol _atom_type_number_in_cell
  Co   24
  O    32

# Note that Z affects _cell_formula_sum and _weight
_cell_formula_units_Z  8
_chemical_formula_sum  "Co3 O4"
_chemical_formula_weight  240.79

# MOLECULAR GEOMETRY
loop_
   _geom_bond_atom_site_label_1
   _geom_bond_atom_site_label_2
   _geom_bond_distance
   _geom_bond_site_symmetry_1
   _geom_bond_site_symmetry_2
   _geom_bond_publ_flag
  O1     CO1    1.97872      1_555    4_555 yes
  O1     CO1    1.97872      1_555    5_555 yes
  O1     CO1    1.97872      1_555    6_555 yes
  O1     CO2    1.82834      1_555    1_555 yes
  CO1    O1     1.97872      1_555   53_544 yes
  CO1    O1     1.97872      1_555   55_544 yes
  CO1    O1     1.97872      1_555   59_544 yes
  CO1    O1     1.97872      1_555   77_555 yes
  CO1    O1     1.97872      1_555   79_555 yes
  CO1    O1     1.97872      1_555   83_555 yes
  CO2    O1     1.82834      1_555    1_555 yes
  CO2    O1     1.82834      1_555   28_665 yes
  CO2    O1     1.82834      1_555   29_566 yes
  CO2    O1     1.82834      1_555   30_656 yes
_pd_proc_ls_pref_orient_corr
   "March-Dollase correction coef. = 1.000 axis = [0, 0, 1]"
_pd_proc_ls_profile_function
;
  Crystallite size in microns with "isotropic" model:
  parameters: Size, G/L mix
    1.000, 1.000, 
  Microstrain, "isotropic" model (10^6^ * delta Q/Q)
    parameters: Mustrain, G/L mix
    1000.000, 1.000, 

;

data_demo_pwd_0
_pd_proc_ls_profile_function
;
Finger-Cox-Jephcoat function parameters U, V, W, X, Y, SH/L:
  peak variance(Gauss) = Utan(Th)^2^+Vtan(Th)+W:
  peak HW(Lorentz) = X/cos(Th)+Ytan(Th); SH/L = S/L+H/L
  U, V, W in (centideg)^2^, X & Y in centideg
    280(10), 0.000, 21.3(18), 0.000, 0.000, 0.002, 
;
# Information for histogram 0: PWDR CoO25C.RAW Bank 1
_pd_block_id  2019-11-04T12:11|demo||a_hist_0
# GSAS-II edited template follows Instrument_Template
#==============================================================================
# 9. INSTRUMENT CHARACTERIZATION

_exptl_special_details
; ?
;

# if regions of the data are excluded, the reason(s) are supplied here:
_pd_proc_info_excluded_regions
; ?
;

# The following item is used to identify the equipment used to record 
# the powder pattern when the diffractogram was measured at a laboratory 
# other than the authors' home institution, e.g. when neutron or synchrotron
# radiation is used.

_pd_instr_location
; ?
;
_pd_calibration_special_details           # description of the method used
                                          # to calibrate the instrument
; ?
;

_diffrn_source                    ?       
_diffrn_source_target             ?
_diffrn_source_type               ?
_diffrn_measurement_device_type   ?       
_diffrn_detector                  ?       
_diffrn_detector_type             ?       # make or model of detector

_pd_meas_scan_method              ?       # options are 'step', 'cont',
                                          # 'tof', 'fixed' or
                                          # 'disp' (= dispersive)
_pd_meas_special_details
;  ?
;

# The following two items identify the program(s) used (if appropriate).
_computing_data_collection        ?        
_computing_data_reduction         ?                   

# Describe any processing performed on the data, prior to refinement.
# For example: a manual Lp correction or a precomputed absorption correction
_pd_proc_info_data_reduction      ?

# The following item is used for angular dispersive measurements only.

_diffrn_radiation_monochromator   ?        

# The following items are used to define the size of the instrument.
# Not all distances are appropriate for all instrument types.

_pd_instr_dist_src/mono           ?
_pd_instr_dist_mono/spec          ?
_pd_instr_dist_src/spec           ?
_pd_instr_dist_spec/anal          ?
_pd_instr_dist_anal/detc          ?
_pd_instr_dist_spec/detc          ?

# 10. Specimen size and mounting information

# The next three fields give the specimen dimensions in mm.  The equatorial 
# plane contains the incident and diffracted beam.

_pd_spec_size_axial               ?       # perpendicular to 
                                          # equatorial plane

_pd_spec_size_equat               ?       # parallel to 
                                          # scattering vector 
                                          # in transmission

_pd_spec_size_thick               ?       # parallel to 
                                          # scattering vector 
                                          # in reflection

_pd_spec_mounting                         # This field should be
                                          # used to give details of the 
                                          # container.
; ?
;

_pd_spec_mount_mode               ?       # options are 'reflection' 
                                          # or 'transmission'
    
_pd_spec_shape                    ?       # options are 'cylinder' 
                                          # 'flat_sheet' or 'irregular'


_diffrn_radiation_type  K\a~1,2~
loop_
   _diffrn_radiation_wavelength
   _diffrn_radiation_wavelength_wt
   _diffrn_radiation_wavelength_id
  1.78892         1.0             1     
  1.79278         0.5000          2     

# PHASE TABLE
loop_
   _pd_phase_id
   _pd_phase_block_id
   _pd_phase_mass_%
  0  2019-11-04T12:11|demo|phase_0|  0.4051(19)
  1  2019-11-04T12:11|demo|phase_1|  0.5949(21)
loop_
   _gsas_proc_phase_R_F_factor
   _gsas_proc_phase_R_Fsqd_factor
   _gsas_proc_phase_id
   _gsas_proc_phase_block_id
    0.04763  0.09881  0  2019-11-04T12:11|demo|phase_0|
    0.10247  0.10424  1  2019-11-04T12:11|demo|phase_1|
_pd_proc_ls_prof_R_factor     0.03487
_pd_proc_ls_prof_wR_factor    0.05000
_gsas_proc_ls_prof_R_B_factor   0.06231
_gsas_proc_ls_prof_wR_B_factor  0.08293
_pd_proc_ls_prof_wR_expected  0.02829
_diffrn_radiation_probe  x-ray
_diffrn_radiation_polarisn_ratio  0.5000
_pd_proc_ls_background_function
;
Background function: "chebyschev" function with 3 terms:
    1107.0(15), -46.2(15), 1.3(31), 
  Background peak parameters: pos, int, sig, gam:
    19.973(3), 5.1(4)e3, 0.100, 8.7(9), 
    32.9228(26), 1.62(5)e4, 0.100, 15.0(7), 
    38.4342(20), 6000.000, 0.100, 5.7(4), 
    38.8145(15), 5.27(7)e4, 0.100, 20.3(4), 
    44.6570(14), 3.64(6)e4, 0.100, 14.7(4), 
    47.256(6), 1.26(6)e4, 0.100, 23.6(17), 
    58.824(12), 2.3(4)e3, 0.100, 13(3), 
    62.781(6), 1.41(6)e4, 0.100, 24.0(15), 
    65.045(4), 1.63(6)e4, 0.100, 18.9(10), 
    69.094(5), 2.04(7)e4, 0.100, 29.2(14), 
;
_diffrn_ambient_temperature  300
_diffrn_ambient_pressure  100

# STRUCTURE FACTOR TABLE
loop_
   _pd_refln_phase_id
   _refln_index_h
   _refln_index_k
   _refln_index_l
   _refln_F_squared_meas
   _refln_F_squared_calc
   _refln_phase_calc
   _refln_d_spacing
   _gsas_i100_meas
  1  1    1    1    9577.6596  4174.4231  180.0   4.67009  6.39   
  1  2    2    0    37948.4084 25814.2320 -180.0  2.85984  13.04  
  1  3    1    1    70657.2869 65017.0111 0.0     2.43888  33.59  
  1  2    2    2    17594.5003 15457.0397 0.0     2.33505  2.51   
  1  4    0    0    96482.8134 87219.4519 -0.0    2.02221  7.30   
  1  3    3    1    281.8154   708.3343   -0.0    1.85571  0.07   
  1  4    2    2    16239.9508 15444.6906 -0.0    1.65113  2.99   
  1  3    3    3    41061.5618 34611.9901 180.0   1.55670  2.19   
  1  5    1    1    57467.6093 48441.1278 -180.0  1.55670  9.20   
  1  4    4    0    219831.5577 203373.2291 -0.0    1.42992  14.62  
  1  5    3    1    6953.3324  1409.9112  0.0     1.36726  1.70   
  1  4    4    2    145.2003   4.0912     -0.0    1.34814  0.02   
  1  6    2    0    9876.2358  10404.4243 -0.0    1.27896  1.10   
  1  5    3    3    31661.5671 28767.7936 0.0     1.23354  3.40   
  1  6    2    2    17492.8536 11118.5327 -0.0    1.21944  1.87   
  0  1    1    1    3405.4711  2845.6707  0.0     2.46305  72.09  
  0  2    0    0    8883.5316  8466.2226  -0.0    2.13306  100.00 
  0  2    2    0    5429.1274  5452.2700  -0.0    1.50830  52.78  
  0  3    1    1    1648.0754  1544.5689  0.0     1.28628  24.03  
  0  2    2    2    4820.4931  3858.1545  -0.0    1.23152  22.49  
_reflns_number_total  20
_reflns_d_resolution_low    4.670
_reflns_d_resolution_high   1.219

# POWDER DATA TABLE
_pd_meas_2theta_range_min  16.00000
_pd_meas_2theta_range_max  99.96300
_pd_meas_2theta_range_inc  0.01700
_pd_meas_number_of_points  4940

loop_
   _pd_meas_intensity_total
   _pd_calc_intensity_total
   _pd_proc_intensity_bkg_calc
   _pd_proc_ls_weight
  1163         1154.575201  1154.554857 0.000859845 
  1092         1154.556239  1154.53578  0.000915751 
  1079         1154.537286  1154.516713 0.000926784 
  1107         1154.518344  1154.497655 0.000903342 
  1103         1154.499412  1154.478606 0.000906618 
  1095         1154.48049   1154.459567 0.000913242 
  1046         1154.461579  1154.440537 0.000956023 
  1102         1154.442679  1154.421517 0.000907441 
  1070         1154.42379   1154.402507 0.000934579 
  1079         1154.404911  1154.383507 0.000926784 
  1085         1154.386045  1154.364517 0.000921659 
  1076         1154.367189  1154.345538 0.000929368 
  1114         1154.348346  1154.326569 0.000897666 
  1129         1154.329514  1154.307611 0.00088574 
  1105         1154.310694  1154.288665 0.000904977 
  1098         1154.291887  1154.269729 0.000910747 
  1070         1154.273092  1154.250805 0.000934579 
  1085         1154.254309  1154.231892 0.000921659 
  1082         1154.23554   1154.212991 0.000924214 
  1078         1154.216784  1154.194102 0.000927644 
  1097         1154.198041  1154.175225 0.000911577 
  1115         1154.179312  1154.156361 0.000896861 
  1071         1154.160597  1154.137509 0.000933707 
  1033         1154.141896  1154.118671 0.000968054 
  1092         1154.12321   1154.099845 0.000915751 
  1116         1154.104538  1154.081033 0.000896057 
  1086         1154.085881  1154.062235 0.00092081 
  1082         1154.067239  1154.04345  0.000924214 
  1083         1154.048612  1154.02468  0.000923361 
  1098         1154.030002  1154.005924 0.000910747 
  1093         1154.011407  1153.987182 0.000914913 
  1070         1153.992829  1153.968456 0.000934579 
  1087         1153.974267  1153.949745 0.000919963 
  1114         1153.955722  1153.93105  0.000897666 
  1089         1153.937195  1153.91237  0.000918274 
  1060         1153.918685  1153.893707 0.000943396 
  1074         1153.900193  1153.87506  0.000931099 
  1102         1153.881719  1153.85643  0.000907441 
  1095         1153.863264  1153.837817 0.000913242 
  1102         1153.844828  1153.819221 0.000907441 
  1116         1153.826412  1153.800644 0.000896057 
  1087         1153.808015  1153.782085 0.000919963 
  1116         1153.789638  1153.763544 0.000896057 
  1111         1153.771282  1153.745023 0.00090009 
  1074         1153.752947  1153.72652  0.000931099 
  1064         1153.734633  1153.708038 0.00093985 
  1082         1153.716341  1153.689576 0.000924214 
  1144         1153.698071  1153.671134 0.000874126 
  1097         1153.679824  1153.652713 0.000911577 
  1056         1153.6616    1153.634314 0.00094697 
  1051         1153.6434    1153.615937 0.000951475 
  1119         1153.625224  1153.597583 0.000893655 
  1119         1153.607073  1153.579251 0.000893655 
  1123         1153.588947  1153.560943 0.000890472 
  1102         1153.570846  1153.542658 0.000907441 
  1122         1153.552772  1153.524398 0.000891266 
  1123         1153.534725  1153.506163 0.000890472 
  1123         1153.516705  1153.487954 0.000890472 
  1113         1153.498713  1153.469771 0.000898473 
  1105         1153.48075   1153.451614 0.000904977 
  1114         1153.462816  1153.433485 0.000897666 
  1121         1153.444912  1153.415384 0.000892061 
  1095         1153.427039  1153.397312 0.000913242 
  1135         1153.409197  1153.379269 0.000881057 
  1125         1153.391387  1153.361255 0.000888889 
  1103         1153.37361   1153.343273 0.000906618 
  1047         1153.355866  1153.325321 0.00095511 
  1066         1153.338157  1153.307402 0.000938086 
  1070         1153.320482  1153.289516 0.000934579 
  1058         1153.302843  1153.271663 0.00094518 
  1067         1153.285242  1153.253845 0.000937207 
  1098         1153.267677  1153.236062 0.000910747 
  1111         1153.250151  1153.218316 0.00090009 
  1120         1153.232665  1153.200606 0.000892857 
  1097         1153.215219  1153.182935 0.000911577 
  1052         1153.197814  1153.165302 0.00095057 
  1069         1153.180452  1153.14771  0.000935454 
  1106         1153.163133  1153.130158 0.000904159 
  1170         1153.145859  1153.112649 0.000854701 
  1115         1153.12863   1153.095182 0.000896861 
  1099         1153.111448  1153.07776  0.000909918 
  1139         1153.094314  1153.060383 0.000877963 
  1092         1153.077229  1153.043052 0.000915751 
  1088         1153.060194  1153.02577  0.000919118 
  1090         1153.043211  1153.008536 0.000917431 
  1079         1153.026282  1152.991353 0.000926784 
  1052         1153.009406  1152.974221 0.00095057 
  1052         1152.992587  1152.957142 0.00095057 
  1131         1152.975825  1152.940118 0.000884173 
  1154         1152.959122  1152.92315  0.000866551 
  1117         1152.94248   1152.90624  0.000895255 
  1098         1152.9259    1152.889389 0.000910747 
  1081         1152.909383  1152.872599 0.000925069 
  1043         1152.892933  1152.855871 0.000958773 
  1067         1152.87655   1152.839207 0.000937207 
  1087         1152.860236  1152.82261  0.000919963 
  1061         1152.843994  1152.806081 0.000942507 
  1074         1152.827825  1152.789622 0.000931099 
  1093         1152.811732  1152.773236 0.000914913 
  1097         1152.795716  1152.756923 0.000911577 
  1148         1152.779781  1152.740687 0.00087108 
  1099         1152.763927  1152.72453  0.000909918 
  1080         1152.748159  1152.708455 0.000925926 
  1129         1152.732478  1152.692463 0.00088574 
  1106         1152.716886  1152.676557 0.000904159 
  1076         1152.701388  1152.66074  0.000929368 
  1112         1152.685985  1152.645015 0.000899281 
  1105         1152.670681  1152.629385 0.000904977 
  1103         1152.655477  1152.613852 0.000906618 
  1062         1152.640379  1152.59842  0.00094162 
  1081         1152.625389  1152.583092 0.000925069 
  1109         1152.61051   1152.567871 0.000901713 
  1151         1152.595747  1152.552762 0.00086881 
  1060         1152.581102  1152.537767 0.000943396 
  1058         1152.56658   1152.52289  0.00094518 
  1114         1152.552186  1152.508137 0.000897666 
  1035         1152.537921  1152.493509 0.000966184 
  1041         1152.523793  1152.479013 0.000960615 
  1127         1152.509804  1152.464652 0.000887311 
  1137         1152.495961  1152.450431 0.000879507 
  1058         1152.482267  1152.436355 0.00094518 
  1130         1152.468728  1152.42243  0.000884956 
  1092         1152.455351  1152.408661 0.000915751 
  1105         1152.442139  1152.395052 0.000904977 
  1101         1152.429099  1152.381611 0.000908265 
  1080         1152.416239  1152.368343 0.000925926 
  1050         1152.403562  1152.355255 0.000952381 
  1062         1152.391079  1152.342354 0.00094162 
  1089         1152.378794  1152.329646 0.000918274 
  1077         1152.366715  1152.317139 0.000928505 
  1091         1152.354851  1152.304841 0.00091659 
  1113         1152.34321   1152.29276  0.000898473 
  1142         1152.3318    1152.280904 0.000875657 
  1107         1152.32063   1152.269283 0.000903342 
  1113         1152.30971   1152.257905 0.000898473 
  1093         1152.299051  1152.246782 0.000914913 
  1117         1152.288661  1152.235923 0.000895255 
  1096         1152.278554  1152.225339 0.000912409 
  1090         1152.268739  1152.215041 0.000917431 
  1126         1152.25923   1152.205042 0.000888099 
  1077         1152.250039  1152.195356 0.000928505 
  1069         1152.24118   1152.185994 0.000935454 
  1133         1152.232668  1152.176971 0.000882613 
  1141         1152.224516  1152.168303 0.000876424 
  1077         1152.216742  1152.160004 0.000928505 
  1070         1152.209363  1152.152094 0.000934579 
  1113         1152.202395  1152.144587 0.000898473 
  1101         1152.195859  1152.137504 0.000908265 
  1065         1152.189773  1152.130863 0.000938967 
  1061         1152.18416   1152.124687 0.000942507 
  1080         1152.179041  1152.118998 0.000925926 
  1116         1152.17444   1152.113818 0.000896057 
  1111         1152.170384  1152.109174 0.00090009 
  1076         1152.166896  1152.105091 0.000929368 
  1076         1152.164008  1152.101598 0.000929368 
  1098         1152.161749  1152.098726 0.000910747 
  1093         1152.160151  1152.096505 0.000914913 
  1112         1152.159249  1152.094971 0.000899281 
  1137         1152.159078  1152.094159 0.000879507 
  1125         1152.159679  1152.094108 0.000888889 
  1063         1152.161093  1152.094862 0.000940734 
  1077         1152.163364  1152.096462 0.000928505 
  1087         1152.166541  1152.098958 0.000919963 
  1116         1152.170673  1152.102398 0.000896057 
  1097         1152.175816  1152.106838 0.000911577 
  1135         1152.18203   1152.112339 0.000881057 
  1110         1152.189374  1152.11896  0.000900901 
  1119         1152.197921  1152.126771 0.000893655 
  1123         1152.20774   1152.135843 0.000890472 
  1118         1152.218911  1152.146254 0.000894454 
  1138         1152.23152   1152.158092 0.000878735 
  1086         1152.245656  1152.171445 0.00092081 
  1071         1152.261421  1152.186414 0.000933707 
  1158         1152.278919  1152.203103 0.000863558 
  1168         1152.298267  1152.221629 0.000856164 
  1136         1152.319596  1152.242122 0.000880282 
  1124         1152.343034  1152.264711 0.00088968 
  1169         1152.36874   1152.289554 0.000855432 
  1078         1152.396869  1152.316804 0.000927644 
  1102         1152.4276    1152.346644 0.000907441 
  1161         1152.461133  1152.379269 0.000861326 
  1121         1152.497672  1152.414885 0.000892061 
  1136         1152.537459  1152.453734 0.000880282 
  1136         1152.580742  1152.496062 0.000880282 
  1020         1152.627806  1152.542156 0.000980392 
  1059         1152.678969  1152.592331 0.000944287 
  1113         1152.734564  1152.646921 0.000898473 
  1175         1152.794984  1152.706318 0.000851064 
  1122         1152.860639  1152.770933 0.000891266 
  1102         1152.932005  1152.841241 0.000907441 
  1106         1153.009615  1152.917773 0.000904159 
  1123         1153.094039  1153.0011   0.000890472 
  1069         1153.18595   1153.091895 0.000935454 
  1119         1153.28607   1153.190877 0.000893655 
  1109         1153.395236  1153.298885 0.000901713 
  1078         1153.514396  1153.416867 0.000927644 
  1120         1153.644595  1153.545865 0.000892857 
  1119         1153.787063  1153.687109 0.000893655 
  1106         1153.943154  1153.841955 0.000904159 
  1131         1154.114457  1154.011989 0.000884173 
  1110         1154.302801  1154.199039 0.000900901 
  1108         1154.510245  1154.405165 0.000902527 
  1149         1154.739243  1154.63282  0.000870322 
  1134         1154.992574  1154.884782 0.000881834 
  1090         1155.273546  1155.164358 0.000917431 
  1107         1155.586048  1155.475437 0.000903342 
  1160         1155.934593  1155.822531 0.000862069 
  1143         1156.324654  1156.211112 0.000874891 
  1153         1156.76264   1156.647589 0.000867303 
  1125         1157.256357  1157.139766 0.000888889 
  1090         1157.815264  1157.697103 0.000917431 
  1058         1158.45076   1158.330996 0.00094518 
  1109         1159.177057  1159.055657 0.000901713 
  1075         1160.01155   1159.888481 0.000930233 
  1082         1160.976202  1160.851429 0.000924214 
  1093         1162.098809  1161.972296 0.000914913 
  1140         1163.414651  1163.286363 0.000877193 
  1115         1164.969812  1164.83971  0.000896861 
  1117         1166.824284  1166.692329 0.000895255 
  1135         1169.058368  1168.924521 0.000881057 
  1133         1171.780872  1171.645091 0.000882613 
  1105         1175.141171  1175.003415 0.000904977 
  1114         1179.350551  1179.210776 0.000897666 
  1159         1184.711927  1184.570088 0.000862813 
  1197         1191.674013  1191.530065 0.000835422 
  1172         1200.919828  1200.773723 0.000853242 
  1211         1213.521546  1213.373234 0.000825764 
  1244         1231.233769  1231.083201 0.000803859 
  1267         1257.015853  1256.862977 0.000789266 
  1299         1295.97735   1295.822113 0.000769823 
  1405         1356.799148  1356.641494 0.000711744 
  1482         1452.537721  1452.377594 0.000674764 
  1577         1593.024766  1592.862106 0.000634115 
  1784         1743.302826  1743.137574 0.000560538 
  1747         1780.173235  1780.005327 0.00057241 
  1588         1659.921974  1659.751346 0.000629723 
  1565         1505.856174  1505.68276  0.000638978 
  1490         1391.55532   1391.379051 0.000671141 
  1410         1317.905784  1317.726588 0.00070922 
  1289         1271.100384  1270.918189 0.000775795 
  1238         1240.569916  1240.384646 0.000807754 
  1171         1219.912499  1219.724074 0.000853971 
  1143         1205.410047  1205.218387 0.000874891 
  1144         1194.89096   1194.695981 0.000874126 
  1161         1187.042825  1186.844439 0.000861326 
  1146         1181.044482  1180.8426   0.0008726 
  1150         1176.364484  1176.159013 0.000869565 
  1158         1172.646074  1172.436916 0.000863558 
  1189         1169.645072  1169.432128 0.000841043 
  1138         1167.188909  1166.972076 0.000878735 
  1119         1165.153568  1164.932737 0.000893655 
  1123         1163.448509  1163.223569 0.000890472 
  1106         1162.00575   1161.776585 0.000904159 
  1111         1160.774188  1160.540679 0.00090009 
  1123         1159.714306  1159.476327 0.000890472 
  1127         1158.795382  1158.552805 0.000887311 
  1115         1157.993416  1157.746105 0.000896861 
  1166         1157.289097  1157.036912 0.000857633 
  1159         1156.667104  1156.409901 0.000862813 
  1148         1156.114891  1155.852518 0.00087108 
  1174         1155.622212  1155.354512 0.000851789 
  1197         1155.180727  1154.907535 0.000835422 
  1201         1154.783401  1154.504547 0.000832639 
  1169         1154.424467  1154.139774 0.000855432 
  1133         1154.099008  1153.808289 0.000882613 
  1168         1153.802892  1153.505956 0.000856164 
  1160         1153.532577  1153.229222 0.000862069 
  1120         1153.285144  1152.975159 0.000892857 
  1096         1153.057988  1152.741152 0.000912409 
  1135         1152.848897  1152.524982 0.000881057 
  1154         1152.65596   1152.324726 0.000866551 
  1169         1152.477495  1152.138692 0.000855432 
  1120         1152.312104  1151.965469 0.000892857 
  1120         1152.1585    1151.803758 0.000892857 
  1123         1152.015574  1151.652437 0.000890472 
  1109         1151.882351  1151.51052  0.000901713 
  1184         1151.757959  1151.377117 0.000844595 
  1127         1151.641671  1151.251486 0.000887311 
  1103         1151.5328    1151.132923 0.000906618 
  1182         1151.430746  1151.020813 0.000846024 
  1143         1151.33498   1150.914608 0.000874891 
  1133         1151.24502   1150.813805 0.000882613 
  1160         1151.160468  1150.717986 0.000862069 
  1187         1151.08094   1150.626741 0.00084246 
  1127         1151.006096  1150.539711 0.000887311 
  1142         1150.935641  1150.456573 0.000875657 
  1136         1150.8693    1150.377025 0.000880282 
  1086         1150.806852  1150.300817 0.00092081 
  1119         1150.74808   1150.227698 0.000893655 
  1130         1150.692793  1150.157449 0.000884956 
  1168         1150.640827  1150.089866 0.000856164 
  1065         1150.592032  1150.024761 0.000938967 
  1195         1150.546292  1149.961977 0.00083682 
  1154         1150.503495  1149.901355 0.000866551 
  1092         1150.463542  1149.842751 0.000915751 
  1153         1150.426357  1149.786036 0.000867303 
  1142         1150.391871  1149.731085 0.000875657 
  1168         1150.360044  1149.677798 0.000856164 
  1070         1150.330838  1149.626067 0.000934579 
  1141         1150.304224  1149.575798 0.000876424 
  1193         1150.280194  1149.526903 0.000838223 
  1194         1150.258747  1149.479298 0.000837521 
  1141         1150.239907  1149.432916 0.000876424 
  1131         1150.223705  1149.387683 0.000884173 
  1138         1150.210175  1149.343535 0.000878735 
  1173         1150.19938   1149.30041  0.000852515 
  1142         1150.19139   1149.25825  0.000875657 
  1139         1150.186302  1149.21701  0.000877963 
  1174         1150.184225  1149.176636 0.000851789 
  1149         1150.185274  1149.137083 0.000870322 
  1134         1150.189601  1149.098308 0.000881834 
  1173         1150.197373  1149.06027  0.000852515 
  1191         1150.208788  1149.022935 0.000839631 
  1136         1150.224075  1148.986266 0.000880282 
  1100         1150.243468  1148.950231 0.000909091 
  1108         1150.267263  1148.914798 0.000902527 
  1125         1150.295783  1148.879935 0.000888889 
  1130         1150.329401  1148.845622 0.000884956 
  1180         1150.368545  1148.811828 0.000847458 
  1182         1150.413671  1148.778531 0.000846024 
  1119         1150.465329  1148.745706 0.000893655 
  1144         1150.524137  1148.713332 0.000874126 
  1163         1150.590801  1148.681391 0.000859845 
  1168         1150.666142  1148.649862 0.000856164 
  1152         1150.751053  1148.618728 0.000868056 
  1129         1150.846613  1148.58797  0.00088574 
  1129         1150.954048  1148.557572 0.00088574 
  1139         1151.07478   1148.527521 0.000877963 
  1148         1151.210485  1148.4978   0.00087108 
  1177         1151.363043  1148.468397 0.000849618 
  1145         1151.534736  1148.439298 0.000873362 
  1150         1151.728223  1148.410489 0.000869565 
  1211         1151.946655  1148.381961 0.000825764 
  1156         1152.193821  1148.353703 0.000865052 
  1159         1152.474128  1148.325702 0.000862813 
  1178         1152.793016  1148.297949 0.000848896 
  1151         1153.157038  1148.270433 0.00086881 
  1219         1153.574211  1148.243148 0.000820345 
  1165         1154.054528  1148.216083 0.000858369 
  1239         1154.610369  1148.18923  0.000807103 
  1211         1155.258267  1148.162582 0.000825764 
  1179         1156.021679  1148.136129 0.000848176 
  1190         1156.938513  1148.109866 0.000840336 
  1192         1158.079648  1148.083786 0.000838926 
  1268         1159.590522  1148.057882 0.000788644 
  1187         1161.781043  1148.032148 0.00084246 
  1178         1165.291258  1148.006577 0.000848896 
  1287         1171.360579  1147.981165 0.000777001 
  1276         1182.188771  1147.955905 0.000783699 
  1349         1201.27765   1147.930792 0.00074129 
  1336         1233.550995  1147.905822 0.000748503 
  1429         1284.898215  1147.880988 0.00069979 
  1499         1360.879937  1147.856288 0.000667111 
  1683         1464.602018  1147.831716 0.000594177 
  1849         1594.127184  1147.807268 0.000540833 
  2120         1740.521146  1147.782941 0.000471698 
  2353         1887.1456    1147.758729 0.000424989 
  2488         2011.319636  1147.73463  0.000401929 
  2633         2089.707725  1147.71064  0.000379795 
  2553         2107.115374  1147.686755 0.000391696 
  2380         2062.176889  1147.662973 0.000420168 
  2112         1965.186988  1147.639289 0.000473485 
  1902         1833.955026  1147.615701 0.000525762 
  1737         1689.747388  1147.592206 0.000575705 
  1561         1551.858001  1147.568802 0.000640615 
  1392         1433.32913   1147.545484 0.000718391 
  1336         1340.134564  1147.522252 0.000748503 
  1296         1272.424658  1147.499101 0.000771605 
  1243         1226.627215  1147.476031 0.000804505 
  1227         1197.583457  1147.453038 0.000814996 
  1236         1180.121528  1147.430121 0.000809061 
  1219         1169.998858  1147.407276 0.000820345 
  1223         1164.184206  1147.384502 0.000817661 
  1219         1160.744444  1147.361798 0.000820345 
  1185         1158.562571  1147.33916  0.000843882 
  1181         1157.042727  1147.316587 0.00084674 
  1194         1155.887372  1147.294078 0.000837521 
  1214         1154.952484  1147.27163  0.000823723 
  1226         1154.166988  1147.249243 0.000815661 
  1195         1153.493126  1147.226913 0.00083682 
  1166         1152.907655  1147.204641 0.000857633 
  1191         1152.394602  1147.182423 0.000839631 
  1150         1151.941943  1147.160259 0.000869565 
  1111         1151.540134  1147.138147 0.00090009 
  1117         1151.181622  1147.116086 0.000895255 
  1158         1150.860074  1147.094075 0.000863558 
  1201         1150.570313  1147.072112 0.000832639 
  1199         1150.30803   1147.050196 0.000834028 
  1250         1150.069593  1147.028326 0.0008    
  1211         1149.852028  1147.006501 0.000825764 
  1195         1149.652733  1146.984719 0.00083682 
  1200         1149.46952   1146.962979 0.000833333 
  1227         1149.300523  1146.941281 0.000814996 
  1191         1149.144114  1146.919624 0.000839631 
  1159         1148.998948  1146.898006 0.000862813 
  1143         1148.863801  1146.876426 0.000874891 
  1095         1148.73763   1146.854883 0.000913242 
  1175         1148.619523  1146.833377 0.000851064 
  1138         1148.508668  1146.811907 0.000878735 
  1160         1148.404387  1146.790472 0.000862069 
  1152         1148.306048  1146.769071 0.000868056 
  1218         1148.213103  1146.747702 0.000821018 
  1147         1148.125066  1146.726367 0.00087184 
  1152         1148.041495  1146.705063 0.000868056 
  1109         1147.962022  1146.68379  0.000901713 
  1160         1147.886293  1146.662547 0.000862069 
  1175         1147.813997  1146.641334 0.000851064 
  1147         1147.744858  1146.620149 0.00087184 
  1185         1147.678619  1146.598993 0.000843882 
  1173         1147.615066  1146.577865 0.000852515 
  1207         1147.553988  1146.556763 0.0008285 
  1187         1147.495201  1146.535688 0.00084246 
  1123         1147.438536  1146.514639 0.000890472 
  1158         1147.383835  1146.493614 0.000863558 
  1194         1147.33097   1146.472615 0.000837521 
  1173         1147.279807  1146.45164  0.000852515 
  1195         1147.230231  1146.430688 0.00083682 
  1182         1147.182135  1146.40976  0.000846024 
  1144         1147.135418  1146.388854 0.000874126 
  1194         1147.089998  1146.36797  0.000837521 
  1136         1147.045788  1146.347108 0.000880282 
  1106         1147.002712  1146.326267 0.000904159 
  1216         1146.960701  1146.305448 0.000822368 
  1181         1146.919687  1146.284648 0.00084674 
  1160         1146.879616  1146.263868 0.000862069 
  1177         1146.84043   1146.243108 0.000849618 
  1205         1146.802076  1146.222367 0.000829876 
  1186         1146.764509  1146.201645 0.00084317 
  1238         1146.727681  1146.180942 0.000807754 
  1195         1146.691555  1146.160256 0.00083682 
  1174         1146.656092  1146.139588 0.000851789 
  1188         1146.621255  1146.118937 0.000841751 
  1210         1146.587011  1146.098303 0.000826446 
  1191         1146.553327  1146.077686 0.000839631 
  1175         1146.520178  1146.057086 0.000851064 
  1163         1146.487535  1146.036501 0.000859845 
  1153         1146.455371  1146.015932 0.000867303 
  1225         1146.423665  1145.995378 0.000816327 
  1175         1146.392391  1145.97484  0.000851064 
  1155         1146.361532  1145.954316 0.000865801 
  1159         1146.331066  1145.933807 0.000862813 
  1165         1146.300975  1145.913312 0.000858369 
  1154         1146.271241  1145.892831 0.000866551 
  1142         1146.241847  1145.872364 0.000875657 
  1140         1146.21278   1145.85191  0.000877193 
  1156         1146.184023  1145.83147  0.000865052 
  1163         1146.155564  1145.811042 0.000859845 
  1121         1146.127388  1145.790627 0.000892061 
  1148         1146.099483  1145.770225 0.00087108 
  1146         1146.07184   1145.749836 0.0008726 
  1122         1146.044445  1145.729458 0.000891266 
  1159         1146.017289  1145.709092 0.000862813 
  1162         1145.990362  1145.688738 0.000860585 
  1163         1145.963654  1145.668395 0.000859845 
  1160         1145.937156  1145.648064 0.000862069 
  1156         1145.910862  1145.627744 0.000865052 
  1171         1145.884761  1145.607434 0.000853971 
  1134         1145.858846  1145.587136 0.000881834 
  1203         1145.833111  1145.566847 0.000831255 
  1140         1145.807548  1145.54657  0.000877193 
  1116         1145.782151  1145.526302 0.000896057 
  1124         1145.756914  1145.506044 0.00088968 
  1174         1145.731831  1145.485796 0.000851789 
  1152         1145.706895  1145.465558 0.000868056 
  1169         1145.682102  1145.445329 0.000855432 
  1191         1145.657447  1145.42511  0.000839631 
  1123         1145.632925  1145.4049   0.000890472 
  1152         1145.608531  1145.384698 0.000868056 
  1166         1145.584259  1145.364506 0.000857633 
  1163         1145.560107  1145.344323 0.000859845 
  1192         1145.536071  1145.324148 0.000838926 
  1227         1145.512145  1145.303981 0.000814996 
  1168         1145.488327  1145.283823 0.000856164 
  1144         1145.464612  1145.263673 0.000874126 
  1163         1145.440999  1145.243531 0.000859845 
  1182         1145.417482  1145.223397 0.000846024 
  1136         1145.394059  1145.203271 0.000880282 
  1203         1145.370728  1145.183153 0.000831255 
  1160         1145.347484  1145.163042 0.000862069 
  1125         1145.324325  1145.142939 0.000888889 
  1189         1145.30125   1145.122843 0.000841043 
  1185         1145.278254  1145.102754 0.000843882 
  1135         1145.255336  1145.082673 0.000881057 
  1134         1145.232493  1145.062598 0.000881834 
  1124         1145.209723  1145.04253  0.00088968 
  1165         1145.187024  1145.02247  0.000858369 
  1179         1145.164393  1145.002415 0.000848176 
  1214         1145.141829  1144.982368 0.000823723 
  1227         1145.11933   1144.962327 0.000814996 
  1197         1145.096893  1144.942292 0.000835422 
  1149         1145.074518  1144.922264 0.000870322 
  1122         1145.052202  1144.902242 0.000891266 
  1151         1145.029943  1144.882226 0.00086881 
  1147         1145.007741  1144.862216 0.00087184 
  1139         1144.985593  1144.842213 0.000877963 
  1135         1144.963497  1144.822215 0.000881057 
  1159         1144.941454  1144.802222 0.000862813 
  1157         1144.91946   1144.782236 0.000864304 
  1154         1144.897515  1144.762255 0.000866551 
  1185         1144.875618  1144.74228  0.000843882 
  1190         1144.853766  1144.72231  0.000840336 
  1173         1144.83196   1144.702346 0.000852515 
  1181         1144.810198  1144.682387 0.00084674 
  1214         1144.788477  1144.662433 0.000823723 
  1163         1144.766799  1144.642485 0.000859845 
  1156         1144.745161  1144.622542 0.000865052 
  1162         1144.723563  1144.602603 0.000860585 
  1148         1144.702003  1144.58267  0.00087108 
  1140         1144.68048   1144.562742 0.000877193 
  1172         1144.658995  1144.542818 0.000853242 
  1171         1144.637544  1144.522899 0.000853971 
  1160         1144.616129  1144.502985 0.000862069 
  1173         1144.594748  1144.483076 0.000852515 
  1201         1144.573399  1144.463171 0.000832639 
  1171         1144.552083  1144.443271 0.000853971 
  1186         1144.530799  1144.423375 0.00084317 
  1184         1144.509545  1144.403484 0.000844595 
  1111         1144.488322  1144.383597 0.00090009 
  1162         1144.467128  1144.363714 0.000860585 
  1235         1144.445963  1144.343836 0.000809717 
  1159         1144.424826  1144.323962 0.000862813 
  1181         1144.403716  1144.304092 0.00084674 
  1141         1144.382633  1144.284226 0.000876424 
  1142         1144.361576  1144.264364 0.000875657 
  1143         1144.340545  1144.244506 0.000874891 
  1173         1144.319539  1144.224652 0.000852515 
  1140         1144.298558  1144.204802 0.000877193 
  1152         1144.2776    1144.184956 0.000868056 
  1162         1144.256666  1144.165114 0.000860585 
  1140         1144.340567  1144.250087 0.000877193 
  1194         1144.320129  1144.230703 0.000837521 
  1168         1144.299716  1144.211326 0.000856164 
  1143         1144.279328  1144.191955 0.000874891 
  1171         1144.258963  1144.172591 0.000853971 
  1179         1144.238622  1144.153233 0.000848176 
  1133         1144.218305  1144.133882 0.000882613 
  1151         1144.19801   1144.114537 0.00086881 
  1204         1144.177738  1144.095199 0.000830565 
  1173         1144.157487  1144.075867 0.000852515 
  1169         1144.137259  1144.056542 0.000855432 
  1159         1144.117052  1144.037224 0.000862813 
  1158         1144.096866  1144.017911 0.000863558 
  1197         1144.0767    1143.998605 0.000835422 
  1200         1144.056555  1143.979306 0.000833333 
  1180         1144.03643   1143.960013 0.000847458 
  1179         1144.016325  1143.940726 0.000848176 
  1157         1143.996239  1143.921446 0.000864304 
  1146         1143.976173  1143.902172 0.0008726 
  1166         1143.956125  1143.882905 0.000857633 
  1189         1143.936097  1143.863644 0.000841043 
  1231         1143.916086  1143.84439  0.000812348 
  1201         1143.896094  1143.825142 0.000832639 
  1143         1143.87612   1143.8059   0.000874891 
  1134         1143.856163  1143.786665 0.000881834 
  1147         1143.836224  1143.767436 0.00087184 
  1129         1143.816302  1143.748213 0.00088574 
  1107         1143.796397  1143.728997 0.000903342 
  1133         1143.776509  1143.709788 0.000882613 
  1172         1143.756638  1143.690584 0.000853242 
  1178         1143.736783  1143.671387 0.000848896 
  1177         1143.716944  1143.652197 0.000849618 
  1179         1143.697121  1143.633013 0.000848176 
  1120         1143.677314  1143.613836 0.000892857 
  1156         1143.657523  1143.594665 0.000865052 
  1144         1143.637747  1143.5755   0.000874126 
  1190         1143.617987  1143.556342 0.000840336 
  1196         1143.598242  1143.53719  0.00083612 
  1187         1143.578512  1143.518045 0.00084246 
  1096         1143.558797  1143.498907 0.000912409 
  1157         1143.539096  1143.479775 0.000864304 
  1131         1143.51941   1143.460649 0.000884173 
  1124         1143.499739  1143.44153  0.00088968 
  1165         1143.480082  1143.422418 0.000858369 
  1222         1143.460439  1143.403312 0.000818331 
  1158         1143.44081   1143.384213 0.000863558 
  1206         1143.421195  1143.365121 0.000829187 
  1198         1143.401594  1143.346035 0.000834725 
  1123         1143.382007  1143.326956 0.000890472 
  1177         1143.362433  1143.307883 0.000849618 
  1161         1143.342873  1143.288817 0.000861326 
  1165         1143.323326  1143.269758 0.000858369 
  1185         1143.303793  1143.250706 0.000843882 
  1125         1143.284273  1143.23166  0.000888889 
  1152         1143.264766  1143.212622 0.000868056 
  1150         1143.245272  1143.19359  0.000869565 
  1190         1143.225791  1143.174565 0.000840336 
  1151         1143.206323  1143.155547 0.00086881 
  1212         1143.186867  1143.136535 0.000825083 
  1209         1143.167425  1143.117531 0.00082713 
  1143         1143.147995  1143.098534 0.000874891 
  1095         1143.128578  1143.079544 0.000913242 
  1122         1143.109173  1143.06056  0.000891266 
  1158         1143.089781  1143.041584 0.000863558 
  1152         1143.070401  1143.022615 0.000868056 
  1110         1143.051034  1143.003653 0.000900901 
  1159         1143.031679  1142.984699 0.000862813 
  1136         1143.012336  1142.965751 0.000880282 
  1147         1142.993006  1142.946811 0.00087184 
  1133         1142.973687  1142.927878 0.000882613 
  1140         1142.954381  1142.908952 0.000877193 
  1158         1142.935087  1142.890034 0.000863558 
  1163         1142.915805  1142.871123 0.000859845 
  1172         1142.896535  1142.85222  0.000853242 
  1165         1142.877276  1142.833324 0.000858369 
  1130         1142.85803   1142.814436 0.000884956 
  1147         1142.838796  1142.795555 0.00087184 
  1165         1142.819574  1142.776682 0.000858369 
  1176         1142.800363  1142.757816 0.00085034 
  1164         1142.781165  1142.738958 0.000859107 
  1162         1142.761978  1142.720108 0.000860585 
  1160         1142.742803  1142.701266 0.000862069 
  1155         1142.72364   1142.682432 0.000865801 
  1173         1142.704489  1142.663606 0.000852515 
  1183         1142.707182  1142.644787 0.000845309 
  1141         1142.688128  1142.625977 0.000876424 
  1124         1142.669087  1142.607175 0.00088968 
  1148         1142.650058  1142.58838  0.00087108 
  1179         1142.631041  1142.569594 0.000848176 
  1144         1142.62296   1142.550817 0.000874126 
  1151         1142.604004  1142.532047 0.00086881 
  1146         1142.585061  1142.513286 0.0008726 
  1166         1142.566131  1142.494534 0.000857633 
  1173         1142.547212  1142.47579  0.000852515 
  1116         1142.528307  1142.457054 0.000896057 
  1098         1142.509413  1142.438327 0.000910747 
  1118         1142.490532  1142.419609 0.000894454 
  1134         1142.471664  1142.4009   0.000881834 
  1154         1142.452808  1142.382199 0.000866551 
  1155         1142.433965  1142.363507 0.000865801 
  1213         1142.415134  1142.344824 0.000824402 
  1190         1142.396316  1142.326151 0.000840336 
  1164         1142.37751   1142.307486 0.000859107 
  1178         1142.358717  1142.288831 0.000848896 
  1140         1142.339937  1142.270185 0.000877193 
  1119         1142.32117   1142.251548 0.000893655 
  1132         1142.302415  1142.23292  0.000883392 
  1102         1142.283673  1142.214302 0.000907441 
  1154         1142.264945  1142.195694 0.000866551 
  1106         1142.246229  1142.177095 0.000904159 
  1224         1142.227526  1142.158506 0.000816993 
  1097         1142.208836  1142.139927 0.000911577 
  1230         1142.190159  1142.121358 0.000813008 
  1244         1142.171496  1142.102799 0.000803859 
  1168         1142.152845  1142.084249 0.000856164 
  1153         1142.134208  1142.065711 0.000867303 
  1153         1142.115584  1142.047182 0.000867303 
  1149         1142.096974  1142.028664 0.000870322 
  1174         1142.078377  1142.010156 0.000851789 
  1167         1142.059794  1141.991658 0.000856898 
  1106         1142.041224  1141.973172 0.000904159 
  1127         1141.998535  1141.930563 0.000887311 
  1181         1141.980109  1141.912214 0.00084674 
  1183         1141.961695  1141.893874 0.000845309 
  1130         1141.943294  1141.875545 0.000884956 
  1127         1141.924907  1141.857226 0.000887311 
  1144         1141.906533  1141.838918 0.000874126 
  1158         1141.888172  1141.820621 0.000863558 
  1129         1141.869825  1141.802334 0.00088574 
  1150         1141.851491  1141.784058 0.000869565 
  1146         1141.833171  1141.765792 0.0008726 
  1130         1141.814865  1141.747539 0.000884956 
  1125         1141.796573  1141.729296 0.000888889 
  1134         1141.778295  1141.711064 0.000881834 
  1148         1141.760031  1141.692844 0.00087108 
  1185         1141.741781  1141.674636 0.000843882 
  1182         1141.723546  1141.656439 0.000846024 
  1147         1141.705325  1141.638255 0.00087184 
  1159         1141.687119  1141.620082 0.000862813 
  1131         1141.668927  1141.601922 0.000884173 
  1148         1141.65075   1141.583773 0.00087108 
  1126         1141.632589  1141.565638 0.000888099 
  1120         1141.614442  1141.547515 0.000892857 
  1173         1141.596311  1141.529404 0.000852515 
  1191         1141.578195  1141.511307 0.000839631 
  1175         1141.560094  1141.493223 0.000851064 
  1178         1141.54201   1141.475152 0.000848896 
  1161         1141.523941  1141.457094 0.000861326 
  1186         1141.505888  1141.43905  0.00084317 
  1195         1141.487851  1141.421019 0.00083682 
  1176         1141.469831  1141.403003 0.00085034 
  1167         1141.451827  1141.385    0.000856898 
  1133         1141.433839  1141.367012 0.000882613 
  1142         1141.415869  1141.349038 0.000875657 
  1206         1141.397915  1141.331079 0.000829187 
  1101         1141.379978  1141.313134 0.000908265 
  1148         1141.362059  1141.295205 0.00087108 
  1126         1141.344157  1141.27729  0.000888099 
  1094         1141.326273  1141.259391 0.000914077 
  1141         1141.308407  1141.241508 0.000876424 
  1185         1141.290559  1141.22364  0.000843882 
  1094         1141.272729  1141.205788 0.000914077 
  1113         1141.254917  1141.187952 0.000898473 
  1141         1141.237124  1141.170133 0.000876424 
  1173         1141.21935   1141.15233  0.000852515 
  1146         1141.201595  1141.134544 0.0008726 
  1190         1141.183859  1141.116775 0.000840336 
  1134         1141.166142  1141.099023 0.000881834 
  1147         1141.148446  1141.081289 0.00087184 
  1079         1141.130769  1141.063572 0.000926784 
  1132         1141.113112  1141.045873 0.000883392 
  1129         1141.095475  1141.028192 0.00088574 
  1109         1141.07786   1141.01053  0.000901713 
  1131         1141.060264  1140.992886 0.000884173 
  1123         1141.04269   1140.975261 0.000890472 
  1200         1141.025138  1140.957655 0.000833333 
  1137         1141.007607  1140.940069 0.000879507 
  1112         1140.990097  1140.922502 0.000899281 
  1157         1140.97261   1140.904955 0.000864304 
  1170         1140.955145  1140.887429 0.000854701 
  1099         1140.937703  1140.869922 0.000909918 
  1134         1140.920284  1140.852437 0.000881834 
  1135         1140.902888  1140.834972 0.000881057 
  1146         1140.885515  1140.817529 0.0008726 
  1172         1140.868166  1140.800108 0.000853242 
  1140         1140.850842  1140.782708 0.000877193 
  1099         1140.833541  1140.76533  0.000909918 
  1103         1140.816266  1140.747976 0.000906618 
  1122         1140.799015  1140.730643 0.000891266 
  1140         1141.040793  1140.972338 0.000877193 
  1100         1141.024426  1140.955885 0.000909091 
  1117         1141.008088  1140.939459 0.000895255 
  1139         1140.991781  1140.923062 0.000877963 
  1106         1140.975504  1140.906693 0.000904159 
  1142         1140.959259  1140.890353 0.000875657 
  1143         1140.943045  1140.874043 0.000874891 
  1150         1140.926863  1140.857762 0.000869565 
  1146         1140.910714  1140.841512 0.0008726 
  1124         1140.894596  1140.825291 0.00088968 
  1143         1140.878513  1140.809102 0.000874891 
  1118         1140.862462  1140.792945 0.000894454 
  1147         1140.846447  1140.776819 0.00087184 
  1184         1140.830465  1140.760726 0.000844595 
  1143         1140.814518  1140.744665 0.000874891 
  1128         1140.798606  1140.728637 0.000886525 
  1124         1140.78273   1140.712643 0.00088968 
  1099         1140.766891  1140.696683 0.000909918 
  1119         1140.751089  1140.680758 0.000893655 
  1180         1140.735323  1140.664868 0.000847458 
  1147         1140.719596  1140.649013 0.00087184 
  1159         1140.703906  1140.633194 0.000862813 
  1156         1140.688256  1140.617413 0.000865052 
  1094         1140.672645  1140.601668 0.000914077 
  1141         1140.657074  1140.585961 0.000876424 
  1095         1140.641543  1140.570292 0.000913242 
  1138         1140.626053  1140.554661 0.000878735 
  1090         1140.610605  1140.539071 0.000917431 
  1109         1140.595199  1140.52352  0.000901713 
  1086         1140.579836  1140.50801  0.00092081 
  1098         1140.564516  1140.49254  0.000910747 
  1124         1140.54924   1140.477113 0.00088968 
  1123         1140.534009  1140.461728 0.000890472 
  1126         1140.518823  1140.446386 0.000888099 
  1188         1140.503683  1140.431087 0.000841751 
  1099         1140.48859   1140.415833 0.000909918 
  1154         1140.473543  1140.400624 0.000866551 
  1146         1140.458546  1140.385461 0.0008726 
  1104         1140.443596  1140.370344 0.000905797 
  1135         1140.428696  1140.355274 0.000881057 
  1155         1140.413846  1140.340252 0.000865801 
  1158         1140.399048  1140.325278 0.000863558 
  1197         1140.384301  1140.310355 0.000835422 
  1138         1140.369606  1140.295481 0.000878735 
  1136         1140.354965  1140.280658 0.000880282 
  1136         1140.340378  1140.265887 0.000880282 
  1172         1140.325846  1140.251168 0.000853242 
  1152         1140.31137   1140.236504 0.000868056 
  1147         1140.296951  1140.221893 0.00087184 
  1179         1140.282589  1140.207337 0.000848176 
  1143         1140.268285  1140.192838 0.000874891 
  1188         1140.254042  1140.178396 0.000841751 
  1155         1140.239859  1140.164012 0.000865801 
  1123         1140.225737  1140.149687 0.000890472 
  1129         1140.211677  1140.135421 0.00088574 
  1105         1140.197682  1140.121217 0.000904977 
  1133         1140.18375   1140.107074 0.000882613 
  1185         1140.169885  1140.092996 0.000843882 
  1157         1140.156086  1140.078981 0.000864304 
  1166         1140.142354  1140.06503  0.000857633 
  1168         1140.128692  1140.051147 0.000856164 
  1154         1140.115099  1140.037331 0.000866551 
  1134         1140.101578  1140.023583 0.000881834 
  1156         1140.08813   1140.009907 0.000865052 
  1147         1140.074755  1139.9963   0.00087184 
  1150         1140.061455  1139.982766 0.000869565 
  1163         1140.048232  1139.969306 0.000859845 
  1137         1140.035086  1139.955921 0.000879507 
  1116         1140.02202   1139.942613 0.000896057 
  1100         1140.009033  1139.929381 0.000909091 
  1110         1139.996129  1139.91623  0.000900901 
  1130         1139.983308  1139.903158 0.000884956 
  1163         1139.970572  1139.890169 0.000859845 
  1146         1139.957922  1139.877264 0.0008726 
  1186         1139.94536   1139.864443 0.00084317 
  1190         1139.932888  1139.85171  0.000840336 
  1154         1139.920507  1139.839065 0.000866551 
  1151         1139.90822   1139.82651  0.00086881 
  1164         1139.896026  1139.814047 0.000859107 
  1125         1139.883929  1139.801677 0.000888889 
  1162         1139.87193   1139.789403 0.000860585 
  1108         1139.860032  1139.777225 0.000902527 
  1161         1139.848236  1139.765148 0.000861326 
  1157         1139.836543  1139.753171 0.000864304 
  1165         1139.824957  1139.741297 0.000858369 
  1149         1139.813478  1139.729528 0.000870322 
  1103         1139.80211   1139.717866 0.000906618 
  1195         1139.790855  1139.706315 0.00083682 
  1164         1139.779713  1139.694874 0.000859107 
  1175         1139.768689  1139.683546 0.000851064 
  1164         1139.757784  1139.672335 0.000859107 
  1158         1139.747     1139.661243 0.000863558 
  1214         1139.736341  1139.650271 0.000823723 
  1167         1139.725809  1139.639424 0.000856898 
  1115         1139.715405  1139.628702 0.000896861 
  1173         1139.705134  1139.618108 0.000852515 
  1165         1139.694997  1139.607646 0.000858369 
  1165         1139.684997  1139.597318 0.000858369 
  1150         1139.675139  1139.587128 0.000869565 
  1159         1139.665423  1139.577077 0.000862813 
  1098         1139.655854  1139.56717  0.000910747 
  1194         1139.646434  1139.557408 0.000837521 
  1128         1139.637167  1139.547796 0.000886525 
  1128         1139.628058  1139.538337 0.000886525 
  1117         1139.619107  1139.529034 0.000895255 
  1112         1139.610319  1139.51989  0.000899281 
  1102         1139.601697  1139.510909 0.000907441 
  1156         1139.593247  1139.502096 0.000865052 
  1165         1139.584971  1139.493453 0.000858369 
  1162         1139.576872  1139.484984 0.000860585 
  1148         1139.568956  1139.476694 0.00087108 
  1135         1139.561226  1139.468587 0.000881057 
  1144         1139.553689  1139.460667 0.000874126 
  1133         1139.546345  1139.452938 0.000882613 
  1148         1139.539201  1139.445405 0.00087108 
  1143         1139.532261  1139.438073 0.000874891 
  1174         1139.525531  1139.430946 0.000851789 
  1161         1139.519017  1139.424031 0.000861326 
  1178         1139.51272   1139.41733  0.000848896 
  1168         1139.506649  1139.410849 0.000856164 
  1183         1139.500807  1139.404595 0.000845309 
  1213         1139.495202  1139.398573 0.000824402 
  1204         1139.489838  1139.392788 0.000830565 
  1201         1139.484724  1139.387249 0.000832639 
  1209         1139.479863  1139.381958 0.00082713 
  1173         1139.475262  1139.376924 0.000852515 
  1132         1139.470927  1139.372152 0.000883392 
  1163         1139.466867  1139.367649 0.000859845 
  1188         1139.46309   1139.363425 0.000841751 
  1165         1139.459599  1139.359484 0.000858369 
  1142         1139.456404  1139.355834 0.000875657 
  1161         1139.453513  1139.352482 0.000861326 
  1202         1139.450933  1139.349438 0.000831947 
  1220         1139.448676  1139.346712 0.000819672 
  1153         1139.446745  1139.344308 0.000867303 
  1174         1139.445153  1139.342237 0.000851789 
  1193         1139.443907  1139.340508 0.000838223 
  1124         1139.443018  1139.339131 0.00088968 
  1135         1139.442497  1139.338118 0.000881057 
  1145         1139.442352  1139.337474 0.000873362 
  1139         1139.442593  1139.337213 0.000877963 
  1129         1139.443233  1139.337346 0.00088574 
  1157         1139.444283  1139.337883 0.000864304 
  1131         1139.445758  1139.33884  0.000884173 
  1181         1139.447664  1139.340223 0.00084674 
  1145         1139.450017  1139.342048 0.000873362 
  1158         1139.45283   1139.344328 0.000863558 
  1196         1139.45612   1139.347079 0.00083612 
  1198         1139.459895  1139.350311 0.000834725 
  1167         1139.464173  1139.35404  0.000856898 
  1164         1139.46897   1139.358282 0.000859107 
  1126         1139.474301  1139.363052 0.000888099 
  1137         1139.480184  1139.368369 0.000879507 
  1186         1139.486639  1139.374252 0.00084317 
  1139         1139.493676  1139.380711 0.000877963 
  1156         1139.501319  1139.387771 0.000865052 
  1130         1139.509587  1139.39545  0.000884956 
  1136         1139.5185    1139.403768 0.000880282 
  1115         1139.528083  1139.41275  0.000896861 
  1136         1139.53835   1139.42241  0.000880282 
  1124         1139.54933   1139.432776 0.00088968 
  1117         1139.561044  1139.443871 0.000895255 
  1174         1139.57352   1139.455721 0.000851789 
  1126         1139.586786  1139.468355 0.000888099 
  1137         1139.600861  1139.481792 0.000879507 
  1118         1139.61578   1139.496065 0.000894454 
  1185         1139.63157   1139.511203 0.000843882 
  1186         1139.648263  1139.527238 0.00084317 
  1165         1139.665897  1139.544207 0.000858369 
  1153         1139.684495  1139.562133 0.000867303 
  1198         1139.7041    1139.581058 0.000834725 
  1177         1139.724746  1139.601019 0.000849618 
  1133         1139.746474  1139.622054 0.000882613 
  1123         1139.76933   1139.644209 0.000890472 
  1111         1139.793346  1139.667517 0.00090009 
  1123         1139.818572  1139.692029 0.000890472 
  1133         1139.845055  1139.71779  0.000882613 
  1134         1139.872845  1139.74485  0.000881834 
  1140         1139.901999  1139.773267 0.000877193 
  1181         1139.932561  1139.803084 0.00084674 
  1200         1139.964594  1139.834364 0.000833333 
  1146         1139.998158  1139.867166 0.0008726 
  1096         1140.033316  1139.901556 0.000912409 
  1137         1140.070143  1139.937605 0.000879507 
  1175         1140.108694  1139.975372 0.000851064 
  1164         1140.149052  1140.014936 0.000859107 
  1162         1140.191293  1140.056375 0.000860585 
  1182         1140.235502  1140.099773 0.000846024 
  1176         1140.281774  1140.145226 0.00085034 
  1152         1140.330183  1140.192808 0.000868056 
  1150         1140.411634  1140.242624 0.000869565 
  1165         1140.464727  1140.294777 0.000858369 
  1165         1140.520277  1140.349378 0.000858369 
  1134         1140.578409  1140.40655  0.000881834 
  1145         1140.639225  1140.466397 0.000873362 
  1125         1140.702865  1140.529058 0.000888889 
  1156         1140.78488   1140.594671 0.000865052 
  1140         1140.854636  1140.66338  0.000877193 
  1138         1140.927669  1140.735356 0.000878735 
  1220         1141.004118  1140.810738 0.000819672 
  1202         1141.084173  1140.889715 0.000831947 
  1159         1141.16802   1140.972472 0.000862813 
  1170         1141.255859  1141.059211 0.000854701 
  1187         1141.347921  1141.150162 0.00084246 
  1126         1141.444402  1141.245519 0.000888099 
  1163         1141.54556   1141.345543 0.000859845 
  1180         1141.651656  1141.450493 0.000847458 
  1190         1141.762969  1141.560648 0.000840336 
  1211         1141.879818  1141.676327 0.000825764 
  1117         1142.002486  1141.797812 0.000895255 
  1147         1142.131336  1141.925468 0.00087184 
  1100         1142.33538   1142.059663 0.000909091 
  1147         1142.477942  1142.200796 0.00087184 
  1187         1142.627911  1142.349323 0.00084246 
  1142         1142.7857    1142.505657 0.000875657 
  1170         1142.951837  1142.670324 0.000854701 
  1177         1143.12686   1142.843863 0.000849618 
  1126         1143.345705  1143.026859 0.000888099 
  1128         1143.540444  1143.219981 0.000886525 
  1185         1143.745951  1143.423854 0.000843882 
  1199         1143.963003  1143.639257 0.000834028 
  1165         1144.192416  1143.867005 0.000858369 
  1167         1144.435077  1144.107985 0.000856898 
  1117         1144.691997  1144.363207 0.000895255 
  1159         1144.964153  1144.633649 0.000862813 
  1128         1145.252749  1144.920514 0.000886525 
  1168         1145.559054  1145.225071 0.000856164 
  1141         1145.884464  1145.548716 0.000876424 
  1170         1146.230572  1145.893041 0.000854701 
  1183         1146.598971  1146.259639 0.000845309 
  1183         1146.991582  1146.650432 0.000845309 
  1188         1147.41048   1147.067493 0.000841751 
  1154         1147.857964  1147.513121 0.000866551 
  1166         1148.336662  1147.989946 0.000857633 
  1167         1148.849281  1148.500672 0.000856898 
  1163         1149.39907   1149.048549 0.000859845 
  1130         1149.989589  1149.637135 0.000884956 
  1142         1150.624831  1150.270425 0.000875657 
  1166         1151.309394  1150.953016 0.000857633 
  1137         1152.048152  1151.689781 0.000879507 
  1139         1152.846941  1152.486556 0.000877963 
  1107         1153.712273  1153.349853 0.000903342 
  1103         1154.651568  1154.287093 0.000906618 
  1135         1155.67346   1155.306907 0.000881057 
  1159         1156.78737   1156.418717 0.000862813 
  1118         1158.004635  1157.633859 0.000894454 
  1141         1159.338172  1158.965251 0.000876424 
  1136         1160.802978  1160.427889 0.000880282 
  1131         1162.416787  1162.039506 0.000884173 
  1149         1164.199584  1163.820087 0.000870322 
  1167         1166.175664  1165.793927 0.000856898 
  1130         1168.373489  1167.989488 0.000884956 
  1178         1170.826908  1170.440617 0.000848896 
  1209         1173.576807  1173.188202 0.00082713 
  1176         1176.671125  1176.280179 0.00085034 
  1166         1180.169234  1179.775921 0.000857633 
  1186         1184.14313   1183.747423 0.00084317 
  1163         1188.68131   1188.283183 0.000859845 
  1205         1193.894212  1193.493636 0.000829876 
  1194         1199.917356  1199.514304 0.000837521 
  1177         1206.924282  1206.518726 0.000849618 
  1260         1215.135018  1214.726929 0.000793651 
  1213         1224.832834  1224.422182 0.000824402 
  1225         1236.388122  1235.974877 0.000816327 
  1295         1250.282916  1249.867048 0.000772201 
  1309         1267.165524  1266.747002 0.000763942 
  1269         1287.907827  1287.48662  0.000788022 
  1243         1313.697731  1313.273806 0.000804505 
  1311         1346.171268  1345.744594 0.000762777 
  1322         1387.564462  1387.135005 0.00075643 
  1423         1440.952219  1440.519946 0.000702741 
  1472         1510.431771  1509.996647 0.000679348 
  1645         1601.124531  1600.686522 0.000607903 
  1703         1718.418441  1717.977512 0.000587199 
  1911         1864.978723  1864.534837 0.000523286 
  2053         2033.576254  2033.129374 0.000487092 
  2226         2195.545383  2195.095473 0.000449236 
  2228         2297.752447  2297.299467 0.000448833 
  2331         2292.068356  2291.612269 0.000429  
  2171         2181.475166  2181.015932 0.000460617 
  2000         2016.819134  2016.356713 0.0005    
  1873         1849.508278  1849.042629 0.000533903 
  1702         1705.682249  1705.213331 0.000587544 
  1591         1591.137527  1590.665297 0.000628536 
  1494         1502.718503  1502.242918 0.000669344 
  1402         1434.983468  1434.504484 0.000713267 
  1373         1382.89568   1382.413252 0.000728332 
  1399         1342.462982  1341.977065 0.000714796 
  1310         1310.70021   1310.210757 0.000763359 
  1248         1285.439362  1284.946326 0.000801282 
  1269         1265.094141  1264.597472 0.000788022 
  1262         1248.512161  1248.011812 0.000792393 
  1211         1234.84674   1234.342659 0.000825764 
  1216         1223.467707  1222.959843 0.000822368 
  1220         1213.905967  1213.394269 0.000819672 
  1221         1205.800594  1205.285007 0.000819001 
  1208         1198.875331  1198.355802 0.000827815 
  1172         1192.915283  1192.391755 0.000853242 
  1164         1187.750881  1187.223299 0.000859107 
  1188         1183.249542  1182.717848 0.000841751 
  1212         1179.303128  1178.767262 0.000825083 
  1204         1175.824926  1175.284829 0.000830565 
  1215         1172.74436   1172.19997  0.000823045 
  1160         1170.003138  1169.454393 0.000862069 
  1157         1167.554211  1167.001046 0.000864304 
  1203         1165.357402  1164.799753 0.000831255 
  1248         1163.379431  1162.81723  0.000801282 
  1158         1161.597062  1161.025483 0.000863558 
  1169         1159.976895  1159.400613 0.000855432 
  1203         1158.503984  1157.922927 0.000831255 
  1194         1157.160879  1156.574975 0.000837521 
  1207         1155.932795  1155.34197  0.0008285 
  1172         1154.806993  1154.211171 0.000853242 
  1141         1153.774683  1153.171407 0.000876424 
  1148         1152.821816  1152.213378 0.00087108 
  1242         1151.942252  1151.328571 0.000805153 
  1184         1151.128663  1150.509657 0.000844595 
  1213         1150.374621  1149.750204 0.000824402 
  1206         1149.67436   1149.044446 0.000829187 
  1141         1149.023072  1148.387572 0.000876424 
  1164         1148.416216  1147.775039 0.000859107 
  1190         1147.849844  1147.202896 0.000840336 
  1158         1147.320439  1146.667625 0.000863558 
  1112         1146.82479   1146.166014 0.000899281 
  1249         1146.356495  1145.69539  0.000800641 
  1144         1145.920427  1145.253146 0.000874126 
  1202         1145.510573  1144.837013 0.000831947 
  1138         1145.123018  1144.444935 0.000878735 
  1163         1144.759596  1144.07501  0.000859845 
  1244         1144.416869  1143.725668 0.000803859 
  1218         1144.093258  1143.395327 0.000821018 
  1143         1143.787387  1143.082607 0.000874891 
  1139         1143.497998  1142.786248 0.000877963 
  1192         1143.223909  1142.505066 0.000838926 
  1113         1142.964153  1142.238089 0.000898473 
  1123         1142.717732  1141.984316 0.000890472 
  1101         1142.483772  1141.742871 0.000908265 
  1125         1142.26147   1141.512945 0.000888889 
  1187         1142.050058  1141.29377  0.00084246 
  1169         1141.84892   1141.084722 0.000855432 
  1168         1141.6574    1140.885144 0.000856164 
  1160         1141.474921  1140.694455 0.000862069 
  1154         1141.300954  1140.512121 0.000866551 
  1156         1141.134984  1140.337623 0.000865052 
  1135         1140.976605  1140.170551 0.000881057 
  1146         1140.825374  1140.010455 0.0008726 
  1154         1140.680898  1139.856941 0.000866551 
  1157         1140.542819  1139.709643 0.000864304 
  1160         1140.410779  1139.568201 0.000862069 
  1149         1140.284509  1139.432338 0.000870322 
  1175         1140.163698  1139.301738 0.000851064 
  1152         1140.048075  1139.176127 0.000868056 
  1130         1139.937391  1139.055246 0.000884956 
  1148         1139.831397  1138.938842 0.00087108 
  1189         1139.7299    1138.826717 0.000841043 
  1178         1139.632691  1138.718652 0.000848896 
  1147         1139.53957   1138.614445 0.00087184 
  1140         1139.450367  1138.513914 0.000877193 
  1169         1139.364901  1138.416873 0.000855432 
  1209         1139.283039  1138.323183 0.00082713 
  1177         1139.204631  1138.232683 0.000849618 
  1157         1139.129537  1138.145227 0.000864304 
  1147         1139.057633  1138.06068  0.00087184 
  1157         1138.988789  1137.978905 0.000864304 
  1178         1138.922915  1137.899804 0.000848896 
  1140         1138.859902  1137.823256 0.000877193 
  1166         1138.799649  1137.74915  0.000857633 
  1161         1138.742069  1137.677389 0.000861326 
  1200         1138.687069  1137.60787  0.000833333 
  1197         1138.634589  1137.540522 0.000835422 
  1176         1138.584547  1137.475248 0.00085034 
  1114         1138.536875  1137.411972 0.000897666 
  1178         1138.491515  1137.350618 0.000848896 
  1190         1138.448396  1137.291106 0.000840336 
  1183         1138.407484  1137.233386 0.000845309 
  1242         1138.36872   1137.177384 0.000805153 
  1218         1138.332058  1137.123041 0.000821018 
  1153         1138.29746   1137.070299 0.000867303 
  1162         1138.264879  1137.019097 0.000860585 
  1138         1138.234298  1136.9694   0.000878735 
  1172         1138.205675  1136.921148 0.000853242 
  1162         1138.178985  1136.874296 0.000860585 
  1114         1138.154207  1136.828801 0.000897666 
  1117         1138.131312  1136.784615 0.000895255 
  1158         1138.110296  1136.741713 0.000863558 
  1149         1138.091137  1136.700048 0.000870322 
  1157         1138.073824  1136.659584 0.000864304 
  1141         1138.058352  1136.62029  0.000876424 
  1164         1138.044706  1136.582127 0.000859107 
  1158         1138.032897  1136.545076 0.000863558 
  1148         1138.022925  1136.509105 0.00087108 
  1096         1138.014785  1136.474182 0.000912409 
  1159         1138.008492  1136.440283 0.000862813 
  1167         1138.004047  1136.40738  0.000856898 
  1060         1138.001473  1136.375457 0.000943396 
  1147         1138.000786  1136.344491 0.00087184 
  1149         1138.002     1136.314456 0.000870322 
  1131         1138.00514   1136.285331 0.000884173 
  1138         1138.010234  1136.257104 0.000878735 
  1152         1138.017315  1136.229757 0.000868056 
  1157         1138.026413  1136.203267 0.000864304 
  1132         1138.09161   1136.231664 0.000883392 
  1135         1138.105015  1136.206999 0.000881057 
  1158         1138.120559  1136.183145 0.000863558 
  1207         1138.138305  1136.160101 0.0008285 
  1186         1138.158301  1136.137843 0.00084317 
  1127         1138.180608  1136.116364 0.000887311 
  1142         1138.291215  1136.18157  0.000875657 
  1172         1138.319236  1136.162502 0.000853242 
  1142         1138.349804  1136.144202 0.000875657 
  1136         1138.382995  1136.126651 0.000880282 
  1167         1138.4189    1136.109846 0.000856898 
  1190         1138.457624  1136.093778 0.000840336 
  1161         1138.499259  1136.078438 0.000861326 
  1168         1138.54393   1136.063826 0.000856164 
  1155         1138.591763  1136.049936 0.000865801 
  1150         1138.64288   1136.036758 0.000869565 
  1167         1138.697436  1136.024289 0.000856898 
  1184         1138.75557   1136.012525 0.000844595 
  1135         1138.817459  1136.001465 0.000881057 
  1137         1138.883288  1135.991108 0.000879507 
  1115         1138.95324   1135.981447 0.000896861 
  1098         1139.027537  1135.97248  0.000910747 
  1152         1139.106388  1135.964207 0.000868056 
  1140         1139.190054  1135.956629 0.000877193 
  1143         1139.278803  1135.949749 0.000874891 
  1092         1139.372911  1135.943558 0.000915751 
  1145         1139.472709  1135.938062 0.000873362 
  1186         1139.578514  1135.933259 0.00084317 
  1170         1139.690715  1135.929158 0.000854701 
  1167         1139.80971   1135.925753 0.000856898 
  1145         1139.935934  1135.923049 0.000873362 
  1176         1140.069882  1135.921047 0.00085034 
  1174         1140.212057  1135.919755 0.000851789 
  1162         1140.363047  1135.919178 0.000860585 
  1160         1140.523481  1135.919314 0.000862069 
  1193         1140.694043  1135.920169 0.000838223 
  1181         1140.875519  1135.921751 0.00084674 
  1079         1141.068709  1135.924061 0.000926784 
  1190         1141.274566  1135.927116 0.000840336 
  1170         1141.494113  1135.93091  0.000854701 
  1203         1141.728473  1135.935455 0.000831255 
  1177         1141.978944  1135.940759 0.000849618 
  1181         1142.246879  1135.946829 0.00084674 
  1203         1142.533878  1135.95368  0.000831255 
  1121         1142.841697  1135.96131  0.000892061 
  1106         1143.172284  1135.969735 0.000904159 
  1098         1143.527901  1135.978963 0.000910747 
  1069         1143.910968  1135.989004 0.000935454 
  1201         1144.324344  1135.999872 0.000832639 
  1199         1144.771246  1136.011583 0.000834028 
  1131         1145.255272  1136.024139 0.000884173 
  1177         1145.780652  1136.037555 0.000849618 
  1191         1146.352037  1136.051847 0.000839631 
  1193         1146.974951  1136.06703  0.000838223 
  1146         1147.655737  1136.083122 0.0008726 
  1139         1148.401652  1136.100128 0.000877963 
  1219         1149.221342  1136.118068 0.000820345 
  1186         1150.124603  1136.13696  0.00084317 
  1190         1151.123279  1136.156828 0.000840336 
  1162         1152.231397  1136.177676 0.000860585 
  1184         1153.465853  1136.199529 0.000844595 
  1177         1154.848033  1136.222405 0.000849618 
  1208         1156.405489  1136.246327 0.000827815 
  1243         1158.177756  1136.271322 0.000804505 
  1205         1160.225729  1136.297396 0.000829876 
  1213         1162.651116  1136.324581 0.000824402 
  1200         1165.633872  1136.352898 0.000833333 
  1182         1169.495373  1136.382372 0.000846024 
  1213         1174.8069    1136.413035 0.000824402 
  1279         1182.54853   1136.4449   0.000781861 
  1302         1194.32542   1136.478001 0.000768049 
  1303         1212.625365  1136.512365 0.00076746 
  1377         1241.044489  1136.548022 0.000726216 
  1443         1284.422877  1136.585011 0.000693001 
  1531         1348.709136  1136.623346 0.000653168 
  1567         1440.446163  1136.66307  0.000638162 
  1691         1565.810041  1136.704214 0.000591366 
  1844         1729.123955  1136.746814 0.000542299 
  1947         1931.313487  1136.790907 0.000513611 
  2217         2168.313083  1136.836541 0.00045106 
  2497         2429.999043  1136.883737 0.000400481 
  2864         2699.940956  1136.932541 0.000349162 
  3234         2955.968099  1136.983001 0.000309215 
  3534         3172.658849  1137.035167 0.000282965 
  3856         3326.039918  1137.089067 0.000259336 
  3738         3400.148079  1137.144758 0.000267523 
  3664         3391.213663  1137.202287 0.000272926 
  3469         3305.837189  1137.261707 0.000288268 
  3116         3155.980695  1137.323084 0.000320924 
  2991         2956.107046  1137.38645  0.000334336 
  2744         2722.989196  1137.451873 0.000364431 
  2325         2475.250069  1137.519412 0.000430108 
  2189         2230.959677  1137.589131 0.00045683 
  1982         2004.584953  1137.661107 0.000504541 
  1700         1805.682703  1137.735381 0.000588235 
  1623         1639.036747  1137.812039 0.000616143 
  1466         1505.388313  1137.891148 0.000682128 
  1443         1402.572594  1137.972789 0.000693001 
  1361         1326.537086  1138.057054 0.000734754 
  1280         1272.343985  1138.143997 0.00078125 
  1272         1234.987993  1138.233718 0.000786164 
  1273         1209.923419  1138.326307 0.000785546 
  1178         1193.404111  1138.421855 0.000848896 
  1187         1182.564285  1138.52048  0.00084246 
  1183         1175.357556  1138.622248 0.000845309 
  1209         1170.411713  1138.727285 0.00082713 
  1221         1166.852518  1138.835696 0.000819001 
  1182         1164.150907  1138.9476   0.000846024 
  1206         1161.996931  1139.063136 0.000829187 
  1165         1160.212747  1139.182395 0.000858369 
  1149         1158.936786  1139.546027 0.000870322 
  1144         1157.627827  1139.674225 0.000874126 
  1170         1156.486745  1139.806587 0.000854701 
  1142         1155.486716  1139.943282 0.000875657 
  1180         1154.607775  1140.084429 0.000847458 
  1094         1153.834431  1140.230215 0.000914077 
  1163         1153.153791  1140.380813 0.000859845 
  1175         1152.555336  1140.536407 0.000851064 
  1129         1152.073551  1140.697211 0.00088574 
  1154         1151.613775  1140.86338  0.000866551 
  1182         1151.212981  1141.03515  0.000846024 
  1159         1150.865471  1141.212738 0.000862813 
  1145         1150.566511  1141.396383 0.000873362 
  1134         1150.311923  1141.586354 0.000881834 
  1125         1150.098036  1141.782854 0.000888889 
  1122         1149.943607  1141.986187 0.000891266 
  1170         1149.802389  1142.196631 0.000854701 
  1169         1149.693846  1142.414492 0.000855432 
  1121         1149.615978  1142.64012  0.000892061 
  1081         1149.566978  1142.873786 0.000925069 
  1072         1149.545431  1143.115875 0.000932836 
  1138         1149.550035  1143.366761 0.000878735 
  1153         1149.579763  1143.626839 0.000867303 
  1146         1149.633738  1143.896565 0.0008726 
  1146         1149.711134  1144.176305 0.0008726 
  1098         1149.811419  1144.466571 0.000910747 
  1159         1149.934097  1144.767849 0.000862813 
  1118         1150.078858  1145.080672 0.000894454 
  1117         1150.24551   1145.405644 0.000895255 
  1160         1150.433824  1145.743265 0.000862069 
  1148         1150.643856  1146.094222 0.00087108 
  1083         1150.875644  1146.459166 0.000923361 
  1157         1151.129406  1146.838831 0.000864304 
  1185         1151.405443  1147.234025 0.000843882 
  1154         1151.704001  1147.645452 0.000866551 
  1157         1152.025606  1148.074041 0.000864304 
  1132         1152.370774  1148.520705 0.000883392 
  1136         1152.740172  1148.986442 0.000880282 
  1199         1153.134597  1149.472382 0.000834028 
  1149         1153.554755  1149.979534 0.000870322 
  1083         1154.001674  1150.509189 0.000923361 
  1145         1154.47638   1151.062642 0.000873362 
  1171         1154.980077  1151.641314 0.000853971 
  1113         1155.514146  1152.246814 0.000898473 
  1067         1156.079851  1152.880609 0.000937207 
  1083         1156.678872  1153.544563 0.000923361 
  1157         1157.312921  1154.240568 0.000864304 
  1100         1157.983934  1154.970713 0.000909091 
  1155         1158.694101  1155.737344 0.000865801 
  1082         1159.445519  1156.542701 0.000924214 
  1181         1160.240828  1157.389553 0.00084674 
  1150         1161.082778  1158.280776 0.000869565 
  1085         1161.974431  1159.219541 0.000921659 
  1116         1162.919282  1160.209452 0.000896057 
  1131         1163.92076   1161.254043 0.000884173 
  1101         1164.983106  1162.357645 0.000908265 
  1138         1166.110778  1163.524808 0.000878735 
  1146         1167.308813  1164.760648 0.0008726 
  1184         1168.582936  1166.070968 0.000844595 
  1195         1169.938997  1167.461695 0.00083682 
  1140         1171.384111  1168.94001  0.000877193 
  1124         1172.925966  1170.51367  0.00088968 
  1084         1174.573304  1172.19147  0.000922509 
  1099         1176.336188  1173.983535 0.000909918 
  1140         1178.225347  1175.900652 0.000877193 
  1121         1180.253771  1177.955855 0.000892061 
  1184         1182.435938  1180.163679 0.000844595 
  1164         1184.788722  1182.541035 0.000859107 
  1139         1187.331929  1185.107775 0.000877963 
  1190         1190.087803  1187.886187 0.000840336 
  1158         1193.083654  1190.903616 0.000863558 
  1139         1196.351377  1194.191997 0.000877963 
  1193         1199.929681  1197.790069 0.000838223 
  1188         1203.866042  1201.745342 0.000841751 
  1215         1208.217797  1206.115188 0.000823045 
  1204         1213.058604  1210.973289 0.000830565 
  1210         1218.481371  1216.412586 0.000826446 
  1243         1224.608054  1222.555058 0.000804505 
  1270         1231.601914  1229.563991 0.000787402 
  1275         1239.684731  1237.661192 0.000784314 
  1297         1249.173174  1247.163349 0.00077101 
  1353         1260.527873  1258.531117 0.000739098 
  1372         1274.453592  1272.469277 0.000728863 
  1409         1292.076395  1290.103914 0.000709723 
  1550         1315.291972  1313.330738 0.000645161 
  1692         1347.521569  1345.57101  0.000591017 
  1847         1395.429408  1393.488972 0.000541419 
  2017         1473.281522  1471.350668 0.000495786 
  2271         1613.067875  1611.146081 0.000440335 
  2422         1878.473756  1876.560514 0.000412882 
  2617         2290.494759  2288.589573 0.000382117 
  2713         2405.168952  2403.271343 0.000368596 
  2572         2040.293112  2038.402607 0.000388802 
  2476         1753.4858    1751.601942 0.000403877 
  2216         1616.715115  1614.837458 0.000451264 
  1978         1560.283567  1558.411674 0.000505561 
  1890         1544.252606  1542.386054 0.000529101 
  1731         1551.22871   1549.36708  0.000577701 
  1666         1573.999366  1572.142252 0.00060024 
  1566         1609.803385  1607.950389 0.00063857 
  1602         1658.141579  1656.292311 0.00062422 
  1594         1719.896071  1718.050151 0.000627353 
  1687         1797.002251  1795.159301 0.000592768 
  1781         1892.371368  1890.531022 0.000561482 
  1895         2009.807979  2007.969876 0.000527704 
  1969         2154.019889  2152.183675 0.000507872 
  2155         2330.231402  2328.396729 0.000464037 
  2484         2543.245252  2541.411777 0.000402576 
  2775         2795.300479  2793.467863 0.00036036 
  2980         3081.748399  3079.916312 0.00033557 
  3303         3384.933405  3383.101519 0.000302755 
  3660         3667.996252  3666.164245 0.000273224 
  3957         3876.511588  3874.679141 0.000252717 
  4037         3956.420259  3954.587056 0.000247709 
  3959         3883.502806  3881.668537 0.000252589 
  3787         3679.581339  3677.745697 0.000264061 
  3486         3397.824759  3395.98744  0.000286862 
  3128         3093.240141  3091.400844 0.000319693 
  2788         2803.735247  2801.893672 0.00035868 
  2509         2547.961654  2546.117506 0.000398565 
  2303         2330.932059  2329.085045 0.000434216 
  2116         2150.611543  2148.761374 0.00047259 
  1931         2002.164959  2000.311344 0.000517866 
  1774         1880.197267  1878.339917 0.000563698 
  1658         1779.800157  1777.938788 0.000603136 
  1583         1696.766443  1694.900771 0.000631712 
  1545         1627.684487  1625.814228 0.000647249 
  1493         1569.829917  1567.954789 0.000669792 
  1454         1521.039008  1519.158729 0.000687758 
  1387         1479.622049  1477.736339 0.000720981 
  1334         1444.224572  1442.333151 0.000749625 
  1329         1413.778439  1411.881028 0.000752445 
  1302         1387.431864  1385.528183 0.000768049 
  1306         1364.499138  1362.588906 0.000765697 
  1267         1344.436013  1342.518952 0.000789266 
  1233         1326.791747  1324.867576 0.00081103 
  1258         1311.200998  1309.269438 0.000794913 
  1275         1297.363282  1295.424051 0.000784314 
  1285         1285.028366  1283.081182 0.00077821 
  1307         1273.992966  1272.037546 0.000765111 
  1291         1264.082143  1262.118204 0.000774593 
  1288         1255.150225  1253.177482 0.000776398 
  1293         1247.07419   1245.092357 0.000773395 
  1226         1239.760976  1237.757176 0.000815661 
  1217         1233.098204  1231.084703 0.000821693 
  1252         1227.020785  1224.997292 0.000798722 
  1222         1221.462802  1219.429023 0.000818331 
  1258         1216.367272  1214.322911 0.000794913 
  1247         1211.684105  1209.628863 0.000801925 
  1221         1207.371568  1205.305145 0.000819001 
  1207         1203.397615  1201.313418 0.0008285 
  1187         1199.716677  1197.620674 0.00084246 
  1243         1196.306011  1194.197893 0.000804505 
  1234         1193.139574  1191.019026 0.000810373 
  1212         1190.195566  1188.062275 0.000825083 
  1239         1187.45344   1185.307088 0.000807103 
  1158         1184.895293  1182.735556 0.000863558 
  1257         1182.505165  1180.331717 0.000795545 
  1241         1180.268476  1178.080986 0.000805802 
  1224         1178.173071  1175.971205 0.000816993 
  1179         1176.207125  1173.990544 0.000848176 
  1178         1174.360304  1172.128665 0.000848896 
  1220         1172.62327   1170.376224 0.000819672 
  1208         1170.987365  1168.724558 0.000827815 
  1175         1169.445411  1167.166486 0.000851064 
  1186         1167.990232  1165.694826 0.00084317 
  1200         1166.61554   1164.303284 0.000833333 
  1227         1165.315592  1162.986111 0.000814996 
  1197         1164.084982  1161.737894 0.000835422 
  1205         1162.919283  1160.554202 0.000829876 
  1162         1161.813935  1159.430468 0.000860585 
  1211         1160.764937  1158.362684 0.000825764 
  1227         1159.768608  1157.347163 0.000814996 
  1214         1158.821439  1156.380386 0.000823723 
  1186         1157.920597  1155.459515 0.00084317 
  1227         1157.063063  1154.581525 0.000814996 
  1235         1156.246199  1153.743767 0.000809717 
  1239         1155.467575  1152.943805 0.000807103 
  1227         1154.724822  1152.179258 0.000814996 
  1170         1154.016058  1151.44824  0.000854701 
  1123         1153.339244  1150.7487   0.000890472 
  1140         1152.692578  1150.078828 0.000877193 
  1197         1152.074399  1149.436952 0.000835422 
  1196         1151.483068  1148.821423 0.00083612 
  1199         1150.917315  1148.230961 0.000834028 
  1189         1150.375704  1147.664121 0.000841043 
  1157         1149.856988  1147.119644 0.000864304 
  1215         1149.359991  1146.596341 0.000823045 
  1200         1148.883557  1146.093044 0.000833333 
  1148         1148.42681   1145.608867 0.00087108 
  1147         1147.988717  1145.142762 0.00087184 
  1185         1147.568389  1144.693829 0.000843882 
  1169         1147.16499   1144.261219 0.000855432 
  1163         1146.777685  1143.844077 0.000859845 
  1187         1146.405847  1143.441768 0.00084246 
  1197         1146.048733  1143.053534 0.000835422 
  1195         1145.705693  1142.678706 0.00083682 
  1187         1145.376124  1142.316665 0.00084246 
  1168         1145.059407  1141.966776 0.000856164 
  1118         1144.7551    1141.628581 0.000894454 
  1091         1144.462647  1141.301507 0.00091659 
  1156         1144.181582  1140.985067 0.000865052 
  1150         1143.911447  1140.678786 0.000869565 
  1192         1143.651796  1140.382193 0.000838926 
  1216         1143.402301  1140.094944 0.000822368 
  1167         1143.162554  1139.816612 0.000856898 
  1169         1142.932204  1139.54682  0.000855432 
  1176         1142.710917  1139.285212 0.00085034 
  1203         1142.498357  1139.031426 0.000831255 
  1193         1142.294288  1138.785205 0.000838223 
  1190         1142.098404  1138.546219 0.000840336 
  1151         1141.910448  1138.31418  0.00086881 
  1133         1141.730171  1138.088814 0.000882613 
  1234         1141.55732   1137.869836 0.000810373 
  1313         1141.391731  1137.657059 0.000761615 
  1260         1141.233175  1137.450217 0.000793651 
  1279         1141.081461  1137.249091 0.000781861 
  1323         1140.936411  1137.053469 0.000755858 
  1259         1140.797832  1136.86312  0.000794281 
  1307         1140.665619  1136.677907 0.000765111 
  1267         1140.539595  1136.497618 0.000789266 
  1248         1140.419632  1136.322083 0.000801282 
  1305         1140.305598  1136.15113  0.000766284 
  1256         1140.197359  1135.98458  0.000796178 
  1264         1140.094847  1135.822324 0.000791139 
  1278         1139.997939  1135.664199 0.000782473 
  1221         1139.906546  1135.510061 0.000819001 
  1202         1139.820582  1135.35978  0.000831947 
  1258         1139.739959  1135.213211 0.000794913 
  1196         1139.664647  1135.07027  0.00083612 
  1174         1139.594557  1134.930821 0.000851789 
  1194         1139.529646  1134.794755 0.000837521 
  1177         1139.469861  1134.661963 0.000849618 
  1130         1139.415154  1134.53233  0.000884956 
  1212         1139.365534  1134.40579  0.000825083 
  1185         1139.320944  1134.282235 0.000843882 
  1118         1139.281374  1134.161573 0.000894454 
  1162         1139.246814  1134.043718 0.000860585 
  1140         1139.217254  1133.928574 0.000877193 
  1183         1139.19272   1133.816092 0.000845309 
  1227         1139.173216  1133.706198 0.000814996 
  1181         1139.158742  1133.598772 0.00084674 
  1160         1139.149322  1133.493778 0.000862069 
  1173         1139.145043  1133.391176 0.000852515 
  1200         1139.145871  1133.290842 0.000833333 
  1187         1139.151923  1133.192774 0.00084246 
  1175         1139.163209  1133.096855 0.000851064 
  1154         1139.179795  1133.003062 0.000866551 
  1168         1139.201801  1132.911358 0.000856164 
  1179         1139.229252  1132.821646 0.000848176 
  1173         1139.262291  1132.733924 0.000852515 
  1192         1139.300985  1132.648091 0.000838926 
  1179         1139.345436  1132.564133 0.000848176 
  1182         1139.395817  1132.482023 0.000846024 
  1176         1139.452198  1132.40167  0.00085034 
  1164         1139.514776  1132.323083 0.000859107 
  1161         1139.583682  1132.246176 0.000861326 
  1126         1139.659064  1132.170937 0.000888099 
  1133         1139.741158  1132.097346 0.000882613 
  1142         1139.830101  1132.025326 0.000875657 
  1179         1139.926155  1131.95489  0.000848176 
  1141         1140.029527  1131.88596  0.000876424 
  1094         1140.140435  1131.818531 0.000914077 
  1169         1140.259197  1131.752589 0.000855432 
  1166         1140.38604   1131.688064 0.000857633 
  1171         1140.521311  1131.624975 0.000853971 
  1148         1140.665326  1131.56325  0.00087108 
  1118         1140.818395  1131.502892 0.000894454 
  1167         1140.980955  1131.44389  0.000856898 
  1176         1141.153355  1131.386183 0.00085034 
  1179         1141.336066  1131.329789 0.000848176 
  1135         1141.529558  1131.274649 0.000881057 
  1179         1141.734277  1131.220768 0.000848176 
  1115         1141.950827  1131.168137 0.000896861 
  1163         1142.179737  1131.116702 0.000859845 
  1157         1142.421667  1131.066487 0.000864304 
  1173         1142.677308  1131.017437 0.000852515 
  1165         1142.947311  1130.969559 0.000858369 
  1248         1143.232541  1130.92285  0.000801282 
  1190         1143.533795  1130.877262 0.000840336 
  1218         1143.852017  1130.83282  0.000821018 
  1172         1144.188243  1130.789475 0.000853242 
  1199         1144.543455  1130.74724  0.000834028 
  1194         1144.918909  1130.706105 0.000837521 
  1195         1145.315853  1130.666046 0.00083682 
  1225         1145.735671  1130.627074 0.000816327 
  1201         1146.179957  1130.58915  0.000832639 
  1182         1146.650236  1130.55229  0.000846024 
  1216         1147.148425  1130.516493 0.000822368 
  1204         1147.676475  1130.481723 0.000830565 
  1151         1148.236558  1130.44801  0.00086881 
  1222         1148.831197  1130.415313 0.000818331 
  1155         1149.462866  1130.383654 0.000865801 
  1123         1150.134604  1130.353031 0.000890472 
  1136         1150.849639  1130.323415 0.000880282 
  1177         1151.611522  1130.294837 0.000849618 
  1136         1152.424444  1130.267261 0.000880282 
  1118         1153.292629  1130.240712 0.000894454 
  1156         1154.221195  1130.21519  0.000865052 
  1175         1155.215775  1130.190671 0.000851064 
  1222         1156.282544  1130.16719  0.000818331 
  1202         1157.428921  1130.144712 0.000831947 
  1197         1158.6626    1130.123268 0.000835422 
  1218         1159.99286   1130.10286  0.000821018 
  1193         1161.430229  1130.083467 0.000838223 
  1192         1162.986403  1130.065127 0.000838926 
  1202         1164.675634  1130.047812 0.000831947 
  1200         1166.513415  1130.031554 0.000833333 
  1150         1168.518705  1130.016359 0.000869565 
  1150         1170.714459  1130.002209 0.000869565 
  1201         1173.128487  1129.989147 0.000832639 
  1242         1175.798939  1129.977148 0.000805153 
  1201         1178.777495  1129.966249 0.000832639 
  1215         1182.143502  1129.956458 0.000823045 
  1248         1186.024899  1129.947762 0.000801282 
  1229         1190.632035  1129.940209 0.00081367 
  1282         1196.322583  1129.933778 0.000780031 
  1345         1203.687119  1129.92851  0.000743494 
  1375         1213.684215  1129.924418 0.000727273 
  1382         1227.819613  1129.921493 0.000723589 
  1379         1248.332982  1129.919789 0.000725163 
  1389         1278.42976   1129.919287 0.000719942 
  1457         1322.390183  1129.920036 0.000686342 
  1464         1385.574687  1129.922054 0.00068306 
  1608         1474.252265  1129.925335 0.000621891 
  1642         1594.919481  1129.929941 0.000609013 
  1719         1753.608992  1129.935857 0.000581734 
  1810         1954.480994  1129.943142 0.000552486 
  1912         2198.572338  1129.951815 0.000523013 
  2167         2482.760615  1129.961878 0.000461467 
  2416         2798.405426  1129.973402 0.000413907 
  2726         3131.571424  1129.986375 0.000366838 
  3095         3462.666378  1130.000868 0.000323102 
  3606         3767.99932   1130.016905 0.000277316 
  4107         4022.401151  1130.034494 0.000243487 
  4511         4203.520183  1130.053716 0.00022168 
  4790         4297.652582  1130.07457  0.000208768 
  4861         4302.150689  1130.097132 0.000205719 
  4784         4223.965955  1130.121439 0.00020903 
  4706         4074.626177  1130.147505 0.000212495 
  4284         3867.630141  1130.175425 0.000233427 
  4015         3617.421327  1130.205202 0.000249066 
  3713         3340.648757  1130.236933 0.000269324 
  3419         3055.811285  1130.270659 0.000292483 
  3144         2781.406878  1130.306408 0.000318066 
  2884         2534.556872  1130.344291 0.000346741 
  2690         2329.684899  1130.384322 0.000371747 
  2461         2179.489813  1130.426614 0.000406339 
  2408         2095.38253   1130.471221 0.000415282 
  2488         2088.28576   1130.518186 0.000401929 
  2574         2169.078034  1130.567641 0.0003885 
  2750         2347.733015  1130.619611 0.000363636 
  2978         2632.327353  1130.674235 0.000335796 
  3340         3027.257239  1130.731583 0.000299401 
  3646         3530.165779  1130.791716 0.000274273 
  4245         4130.515828  1130.854795 0.000235571 
  4803         4806.728405  1130.920857 0.000208203 
  5465         5525.757183  1130.990079 0.000182983 
  6200         6244.227994  1131.062548 0.00016129 
  6930         6909.291086  1131.13835  0.0001443 
  7607         7465.586404  1131.217683 0.000131458 
  7912         7863.466621  1131.300609 0.00012639 
  7959         8071.360728  1131.387341 0.000125644 
  7926         8082.200581  1131.478002 0.000126167 
  7583         7909.467479  1131.572705 0.000131874 
  7148         7577.62864   1131.6717   0.000139899 
  6744         7114.915309  1131.775079 0.00014828 
  6153         6551.662412  1131.88311  0.000162522 
  5476         5921.150483  1131.995959 0.000182615 
  4922         5260.531301  1132.113785 0.000203169 
  4363         4605.525606  1132.236899 0.0002292 
  3823         3986.819404  1132.365442 0.000261575 
  3330         3426.625087  1132.499757 0.0003003 
  2877         2937.872684  1132.640065 0.000347584 
  2597         2526.302528  1132.78659  0.00038506 
  2348         2190.849694  1132.939737 0.000425894 
  2127         1926.136375  1133.099706 0.000470146 
  1961         1723.593868  1133.227242 0.000509944 
  1842         1573.040436  1133.402336 0.000542888 
  1700         1464.09758   1133.585321 0.000588235 
  1597         1386.967488  1133.776725 0.000626174 
  1533         1333.261634  1133.976847 0.000652316 
  1437         1296.160148  1134.186284 0.000695894 
  1403         1270.418974  1134.405463 0.000712758 
  1365         1252.263451  1134.634836 0.000732601 
  1399         1239.060432  1134.875113 0.000714796 
  1258         1229.07674   1135.126739 0.000794913 
  1301         1221.203664  1135.390522 0.00076864 
  1336         1214.746847  1135.667081 0.000748503 
  1262         1209.288825  1135.957061 0.000792393 
  1265         1204.569691  1136.26145  0.000790514 
  1221         1200.430608  1136.580911 0.000819001 
  1275         1196.768719  1136.916577 0.000784314 
  1232         1193.509933  1137.269351 0.000811688 
  1239         1190.603218  1137.640191 0.000807103 
  1208         1188.006106  1138.030499 0.000827815 
  1272         1185.685945  1138.441293 0.000786164 
  1173         1183.616131  1138.874194 0.000852515 
  1208         1181.77196   1139.330572 0.000827815 
  1177         1180.134743  1139.811882 0.000849618 
  1148         1178.686932  1140.320181 0.00087108 
  1153         1177.414406  1140.857064 0.000867303 
  1195         1176.305832  1141.424949 0.00083682 
  1171         1175.349911  1142.025957 0.000853971 
  1184         1174.53869   1142.662392 0.000844595 
  1140         1173.864785  1143.337373 0.000877193 
  1173         1173.322414  1144.053499 0.000852515 
  1196         1172.907904  1144.814503 0.00083612 
  1223         1172.617152  1145.623826 0.000817661 
  1184         1172.448276  1146.485225 0.000844595 
  1161         1172.400193  1147.403669 0.000861326 
  1145         1172.472526  1148.383546 0.000873362 
  1124         1172.667091  1149.430915 0.00088968 
  1158         1172.985209  1150.551612 0.000863558 
  1175         1173.430064  1151.752082 0.000851064 
  1192         1174.006317  1153.040665 0.000838926 
  1196         1174.718911  1154.425153 0.00083612 
  1198         1175.575729  1155.915967 0.000834725 
  1190         1176.584405  1157.523569 0.000840336 
  1148         1177.754741  1159.25971  0.00087108 
  1199         1179.099344  1161.139326 0.000834028 
  1210         1180.631173  1163.177126 0.000826446 
  1147         1182.367958  1165.392394 0.00087184 
  1140         1184.328047  1167.8053   0.000877193 
  1161         1186.533277  1170.438854 0.000861326 
  1151         1189.011204  1173.322107 0.00086881 
  1185         1191.790956  1176.485263 0.000843882 
  1204         1194.910552  1179.967286 0.000830565 
  1176         1198.411395  1183.810742 0.00085034 
  1236         1202.342567  1188.065385 0.000809061 
  1277         1206.765891  1192.793981 0.000783085 
  1213         1211.749627  1198.065392 0.000824402 
  1189         1217.381854  1203.968218 0.000841043 
  1241         1223.763347  1210.603925 0.000805802 
  1253         1231.015958  1218.094654 0.000798085 
  1239         1239.29522   1226.596448 0.000807103 
  1303         1248.782014  1236.290416 0.00076746 
  1316         1259.712169  1247.412536 0.000759878 
  1305         1272.370351  1260.247752 0.000766284 
  1313         1287.114181  1275.153606 0.000761615 
  1325         1304.412639  1292.599173 0.000754717 
  1342         1324.847442  1313.165978 0.000745156 
  1268         1349.199882  1337.635055 0.000788644 
  1382         1378.476501  1367.012734 0.000723589 
  1344         1414.014175  1402.635328 0.000744048 
  1431         1457.650189  1446.339665 0.000698812 
  1470         1511.837227  1500.57763  0.000680272 
  1606         1580.020974  1568.794001 0.000622665 
  1639         1666.918774  1655.705147 0.000610128 
  1704         1779.03875   1767.817761 0.000586854 
  1906         1925.353793  1914.103284 0.000524659 
  2098         2117.360227  2106.056037 0.000476644 
  2400         2368.509005  2357.124646 0.000416667 
  2693         2689.052163  2677.558319 0.000371333 
  3065         3072.199734  3060.563112 0.000326264 
  3524         3467.698574  3455.880741 0.000283768 
  3805         3760.455034  3748.409638 0.000262812 
  3809         3817.859835  3805.528484 0.000262536 
  3517         3608.848476  3596.1533   0.000284333 
  3234         3238.974173  3225.804591 0.000309215 
  2845         2841.781457  2827.973419 0.000351494 
  2505         2494.126234  2479.427715 0.000399202 
  2270         2216.690569  2200.710768 0.000440529 
  2046         2004.017418  1986.153578 0.000488759 
  1860         1843.411547  1822.748272 0.000537634 
  1685         1722.667022  1697.854982 0.000593472 
  1657         1632.439602  1601.550362 0.0006035 
  1553         1565.946915  1526.334589 0.000643915 
  1494         1518.643292  1466.833151 0.000669344 
  1469         1487.529465  1419.158679 0.000680735 
  1451         1470.572495  1380.461875 0.00068918 
  1456         1466.373536  1348.706093 0.000686813 
  1446         1473.652242  1322.353226 0.000691563 
  1393         1491.015522  1300.277345 0.000717875 
  1420         1516.721203  1281.624148 0.000704225 
  1499         1548.459721  1265.725114 0.000667111 
  1577         1583.414839  1252.079971 0.000634115 
  1607         1618.202815  1240.281912 0.000622278 
  1632         1649.15758   1230.019555 0.000612745 
  1729         1672.732519  1221.043331 0.000578369 
  1787         1686.129819  1213.145214 0.000559597 
  1777         1687.905165  1206.16504  0.000562746 
  1788         1678.073243  1199.964034 0.000559284 
  1751         1657.735322  1194.433215 0.000571102 
  1684         1628.413132  1189.481742 0.000593824 
  1648         1591.809689  1185.029835 0.000606796 
  1594         1549.688501  1181.015419 0.000627353 
  1501         1504.065337  1177.381627 0.000666223 
  1461         1457.133203  1174.083316 0.000684463 
  1417         1411.010997  1171.081778 0.000705716 
  1343         1367.501162  1168.341381 0.000744602 
  1328         1327.90491   1165.834527 0.000753012 
  1287         1293.030924  1163.534551 0.000777001 
  1259         1263.212662  1161.420294 0.000794281 
  1293         1238.424387  1159.473233 0.000773395 
  1244         1218.344294  1157.675555 0.000803859 
  1159         1202.465995  1156.01366  0.000862813 
  1161         1190.173466  1154.473733 0.000861326 
  1237         1180.810965  1153.04488  0.000808407 
  1218         1173.758168  1151.717439 0.000821018 
  1140         1168.457533  1150.481691 0.000877193 
  1206         1164.447708  1149.330397 0.000829187 
  1198         1161.362578  1148.255822 0.000834725 
  1161         1158.926459  1147.251945 0.000861326 
  1197         1156.942237  1146.313379 0.000835422 
  1193         1155.272302  1145.434455 0.000838223 
  1172         1153.825709  1144.611085 0.000853242 
  1087         1152.542399  1143.838676 0.000919963 
  1183         1151.383929  1143.113712 0.000845309 
  1167         1150.325621  1142.433035 0.000856898 
  1157         1149.350525  1141.793165 0.000864304 
  1149         1148.447579  1141.191691 0.000870322 
  1210         1147.608234  1140.625763 0.000826446 
  1134         1146.826165  1140.093233 0.000881834 
  1149         1146.09636   1139.592205 0.000870322 
  1163         1145.414103  1139.120445 0.000859845 
  1167         1144.775861  1138.6765   0.000856898 
  1143         1144.178133  1138.258543 0.000874891 
  1190         1143.618056  1137.865235 0.000840336 
  1185         1143.09318   1137.495419 0.000843882 
  1212         1142.600913  1137.147634 0.000825083 
  1221         1142.13935   1136.820985 0.000819001 
  1170         1141.706495  1136.514308 0.000854701 
  1125         1141.3007    1136.226753 0.000888889 
  1149         1140.9206    1135.957637 0.000870322 
  1169         1140.564618  1135.705994 0.000855432 
  1171         1140.231676  1135.471303 0.000853971 
  1212         1139.920584  1135.252826 0.000825083 
  1128         1139.630371  1135.050051 0.000886525 
  1150         1139.360292  1134.862618 0.000869565 
  1169         1139.109374  1134.68991  0.000855432 
  1108         1138.877024  1134.531658 0.000902527 
  1097         1138.662561  1134.387453 0.000911577 
  1110         1138.465437  1134.257016 0.000900901 
  1102         1138.285311  1134.140242 0.000907441 
  1111         1138.121617  1134.036781 0.00090009 
  1122         1137.974083  1133.946566 0.000891266 
  1104         1137.842407  1133.869456 0.000905797 
  1120         1137.726333  1133.805371 0.000892857 
  1152         1137.625835  1133.754432 0.000868056 
  1159         1137.540656  1133.716521 0.000862813 
  1144         1137.470788  1133.691764 0.000874126 
  1140         1137.416246  1133.680275 0.000877193 
  1155         1137.377027  1133.682172 0.000865801 
  1167         1137.353398  1133.697815 0.000856898 
  1148         1137.345386  1133.727326 0.00087108 
  1127         1137.353245  1133.771048 0.000887311 
  1125         1137.377316  1133.829386 0.000888889 
  1126         1137.417865  1133.902691 0.000888099 
  1153         1137.475488  1133.99162  0.000867303 
  1127         1137.550539  1134.096593 0.000887311 
  1171         1137.64358   1134.218233 0.000853971 
  1135         1137.755362  1134.357334 0.000881057 
  1120         1137.886493  1134.514563 0.000892857 
  1098         1138.038008  1134.690998 0.000910747 
  1126         1138.210704  1134.887483 0.000888099 
  1119         1138.405585  1135.105065 0.000893655 
  1149         1138.623976  1135.345095 0.000870322 
  1144         1138.867001  1135.608743 0.000874126 
  1128         1139.136369  1135.897746 0.000886525 
  1147         1139.433542  1136.2136   0.00087184 
  1149         1139.760244  1136.558059 0.000870322 
  1172         1140.118705  1136.933373 0.000853242 
  1096         1140.510907  1137.341554 0.000912409 
  1168         1140.93967   1137.785443 0.000856164 
  1144         1141.407582  1138.267653 0.000874126 
  1166         1141.917621  1138.791184 0.000857633 
  1197         1142.473584  1139.359841 0.000835422 
  1174         1143.078992  1139.977173 0.000851789 
  1168         1143.738645  1140.647993 0.000856164 
  1167         1144.457221  1141.376995 0.000856898 
  1145         1145.240022  1142.169498 0.000873362 
  1127         1146.093761  1143.032218 0.000887311 
  1120         1147.024964  1143.971703 0.000892857 
  1133         1148.042243  1144.996573 0.000882613 
  1130         1149.154384  1146.115623 0.000884956 
  1124         1150.371415  1147.338895 0.00088968 
  1124         1151.705939  1148.678991 0.00088968 
  1116         1153.170755  1150.148727 0.000896057 
  1178         1154.782466  1151.764709 0.000848896 
  1153         1156.558715  1153.544586 0.000867303 
  1151         1158.519945  1155.508812 0.00086881 
  1185         1160.691719  1157.682943 0.000843882 
  1166         1163.101294  1160.094251 0.000857633 
  1168         1165.783603  1162.777669 0.000856164 
  1181         1168.777405  1165.771958 0.00084674 
  1170         1172.12839   1169.122815 0.000854701 
  1180         1175.893996  1172.887669 0.000847458 
  1200         1180.138316  1177.130624 0.000833333 
  1159         1184.943375  1181.933703 0.000862813 
  1163         1190.403937  1187.391669 0.000859845 
  1162         1196.63428   1193.618801 0.000860585 
  1179         1203.779245  1200.759934 0.000848176 
  1234         1212.007096  1208.983335 0.000810373 
  1230         1221.533601  1218.50477  0.000813008 
  1243         1232.615219  1229.580692 0.000804505 
  1205         1245.564844  1242.523996 0.000829876 
  1232         1260.776607  1257.728802 0.000811688 
  1297         1278.70957   1275.654174 0.00077101 
  1277         1299.931287  1296.867658 0.000783085 
  1305         1325.081143  1322.008634 0.000766284 
  1351         1354.854222  1351.772184 0.000740192 
  1424         1389.956924  1386.86469  0.000702247 
  1446         1430.878251  1427.775158 0.000691563 
  1509         1477.661522  1474.546895 0.000662691 
  1540         1529.319593  1526.192747 0.000649351 
  1587         1583.194813  1580.055058 0.00063012 
  1621         1634.433074  1631.279701 0.000616903 
  1716         1676.001013  1672.833312 0.000582751 
  1677         1700.329665  1697.146915 0.000596303 
  1676         1702.101633  1698.903094 0.000596659 
  1683         1680.906584  1677.691512 0.000594177 
  1615         1641.419439  1638.187067 0.000619195 
  1588         1591.108612  1587.858167 0.000629723 
  1505         1537.1816    1533.912294 0.000664452 
  1485         1484.896881  1481.607905 0.000673401 
  1469         1437.222728  1433.913266 0.000680735 
  1460         1395.315913  1391.985117 0.000684932 
  1420         1359.294616  1355.941634 0.000704225 
  1379         1328.678873  1325.302832 0.000725163 
  1286         1302.804363  1299.404364 0.000777605 
  1266         1280.968174  1277.543306 0.000789889 
  1217         1262.502061  1259.051377 0.000821693 
  1311         1246.845825  1243.368369 0.000762777 
  1229         1233.509227  1230.004016 0.00081367 
  1241         1222.098656  1218.564679 0.000805802 
  1197         1212.289992  1208.726217 0.000835422 
  1228         1203.810788  1200.216142 0.000814332 
  1190         1196.448348  1192.821744 0.000840336 
  1172         1190.020649  1186.360969 0.000853242 
  1163         1184.384336  1180.69042  0.000859845 
  1212         1179.421062  1175.691731 0.000825083 
  1123         1175.029247  1171.263267 0.000890472 
  1152         1171.129632  1167.325751 0.000868056 
  1140         1167.651798  1163.808725 0.000877193 
  1122         1164.539928  1160.656322 0.000891266 
  1126         1161.746847  1157.821337 0.000888099 
  1125         1159.230482  1155.261637 0.000888889 
  1173         1156.957958  1152.944315 0.000852515 
  1113         1154.898716  1150.838767 0.000898473 
  1106         1153.028443  1148.920617 0.000904159 
  1139         1151.326105  1147.16879  0.000877963 
  1121         1149.772198  1145.563711 0.000892061 
  1119         1148.351597  1144.090211 0.000893655 
  1103         1147.04956   1142.733489 0.000906618 
  1125         1145.854402  1141.481784 0.000888889 
  1097         1144.755828  1140.324747 0.000911577 
  1118         1143.743918  1139.252368 0.000894454 
  1107         1142.811097  1138.257015 0.000903342 
  1067         1141.949621  1137.330868 0.000937207 
  1054         1141.153429  1136.46777  0.000948767 
  1085         1140.417095  1135.662224 0.000921659 
  1161         1139.735197  1134.908693 0.000861326 
  1164         1139.103692  1134.20306  0.000859107 
  1098         1138.518237  1133.540885 0.000910747 
  1121         1137.975506  1132.918715 0.000892061 
  1129         1137.472489  1132.333449 0.00088574 
  1136         1137.006057  1131.781812 0.000880282 
  1101         1136.573969  1131.261462 0.000908265 
  1116         1136.173657  1130.769703 0.000896057 
  1139         1135.803263  1130.304514 0.000877963 
  1154         1135.46105   1129.864038 0.000866551 
  1110         1135.145177  1129.446239 0.000900901 
  1139         1134.85437   1129.049711 0.000877963 
  1132         1134.587101  1128.672755 0.000883392 
  1111         1134.342323  1128.31411  0.00090009 
  1146         1134.119054  1127.972628 0.0008726 
  1118         1133.916214  1127.646979 0.000894454 
  1148         1133.733118  1127.33629  0.00087108 
  1156         1133.568873  1127.03944  0.000865052 
  1146         1133.422956  1126.75562  0.0008726 
  1143         1133.294851  1126.484085 0.000874891 
  1088         1133.183998  1126.223939 0.000919118 
  1075         1133.090097  1125.974621 0.000930233 
  1158         1133.012692  1125.735362 0.000863558 
  1064         1132.951635  1125.505625 0.00093985 
  1112         1132.906757  1125.284918 0.000899281 
  1133         1132.877886  1125.072611 0.000882613 
  1166         1132.865025  1124.868335 0.000857633 
  1198         1132.868073  1124.671549 0.000834725 
  1095         1132.887199  1124.481885 0.000913242 
  1134         1132.922535  1124.299007 0.000881834 
  1115         1132.974266  1124.122462 0.000896861 
  1115         1133.042683  1123.952003 0.000896861 
  1159         1133.128027  1123.787237 0.000862813 
  1181         1133.230808  1123.627906 0.00084674 
  1064         1133.351478  1123.473777 0.00093985 
  1108         1133.490616  1123.324514 0.000902527 
  1142         1133.648859  1123.179951 0.000875657 
  1113         1133.826843  1123.03979  0.000898473 
  1146         1134.025519  1122.903853 0.0008726 
  1135         1134.245754  1122.771974 0.000881057 
  1141         1134.488646  1122.643896 0.000876424 
  1106         1134.755314  1122.519505 0.000904159 
  1141         1135.046961  1122.39858  0.000876424 
  1192         1135.36516   1122.280986 0.000838926 
  1155         1135.71141   1122.166603 0.000865801 
  1096         1136.087593  1122.055238 0.000912409 
  1145         1136.49558   1121.946807 0.000873362 
  1114         1136.937465  1121.841141 0.000897666 
  1102         1137.415837  1121.738141 0.000907441 
  1119         1137.933239  1121.637718 0.000893655 
  1187         1138.492835  1121.53972  0.00084246 
  1181         1139.097817  1121.444092 0.00084674 
  1129         1139.75178   1121.350694 0.00088574 
  1142         1140.459106  1121.259456 0.000875657 
  1185         1141.224204  1121.170314 0.000843882 
  1142         1142.05254   1121.083144 0.000875657 
  1188         1142.94973   1120.997909 0.000841751 
  1195         1143.922186  1120.914495 0.00083682 
  1166         1144.977639  1120.832852 0.000857633 
  1185         1146.124118  1120.75293  0.000843882 
  1194         1147.371544  1120.67463  0.000837521 
  1181         1148.730402  1120.597926 0.00084674 
  1154         1150.212859  1120.522726 0.000866551 
  1182         1151.833697  1120.448992 0.000846024 
  1173         1153.609041  1120.376686 0.000852515 
  1193         1155.559401  1120.305726 0.000838223 
  1215         1157.708492  1120.236096 0.000823045 
  1230         1160.086851  1120.167719 0.000813008 
  1222         1162.73665   1120.100567 0.000818331 
  1256         1165.715638  1120.034611 0.000796178 
  1248         1169.112749  1119.969782 0.000801282 
  1261         1173.063439  1119.90607  0.000793021 
  1230         1177.783272  1119.843413 0.000813008 
  1307         1183.618864  1119.781788 0.000765111 
  1325         1191.111877  1119.721171 0.000754717 
  1393         1201.107471  1119.661508 0.000717875 
  1362         1214.869822  1119.602789 0.000734214 
  1385         1234.239234  1119.544965 0.000722022 
  1497         1261.792344  1119.488017 0.000668003 
  1575         1300.97056   1119.431927 0.000634921 
  1602         1356.203539  1119.376648 0.00062422 
  1688         1432.813341  1119.322176 0.000592417 
  1733         1536.816473  1119.268467 0.000577034 
  1763         1674.602449  1119.215507 0.000567215 
  1920         1852.060536  1119.163282 0.000520833 
  2088         2074.002722  1119.111752 0.000478927 
  2129         2342.849733  1119.060915 0.000469704 
  2453         2657.752058  1119.010734 0.000407664 
  2782         3013.988102  1118.961197 0.000359454 
  3039         3401.905515  1118.912295 0.000329056 
  3484         3807.389593  1118.863992 0.000287026 
  4233         4211.503951  1118.816286 0.000236239 
  4953         4591.776012  1118.76915  0.000201898 
  5742         4924.024094  1118.72257  0.000174155 
  6130         5185.291342  1118.676541 0.000163132 
  6134         5358.272034  1118.631032 0.000163026 
  6025         5434.642257  1118.586042 0.000165975 
  5609         5416.017528  1118.541547 0.000178285 
  5171         5310.654003  1118.497537 0.000193386 
  4746         5130.457683  1118.454007 0.000210704 
  4521         4887.50606   1118.410931 0.00022119 
  4405         4594.203066  1118.368309 0.000227015 
  4088         4263.741797  1118.326119 0.000244618 
  3650         3910.412041  1118.284354 0.000273973 
  3104         3549.639151  1118.243009 0.000322165 
  2664         3195.80195   1118.202063 0.000375375 
  2314         2861.190054  1118.161515 0.000432152 
  2115         2554.739512  1118.121348 0.000472813 
  1900         2282.214022  1118.081554 0.000526316 
  1745         2046.409099  1118.04213  0.000573066 
  1644         1847.699468  1118.003057 0.000608273 
  1505         1684.555057  1117.964336 0.000664452 
  1467         1553.880446  1117.925951 0.000681663 
  1435         1451.755177  1117.887895 0.000696864 
  1366         1373.726293  1117.850168 0.000732064 
  1353         1315.354238  1117.81275  0.000739098 
  1307         1272.474017  1117.775642 0.000765111 
  1326         1241.383781  1117.738837 0.000754148 
  1311         1219.018036  1117.702322 0.000762777 
  1281         1202.915895  1117.666099 0.00078064 
  1239         1191.2101    1117.630151 0.000807103 
  1214         1182.531892  1117.594478 0.000823723 
  1211         1175.909987  1117.559075 0.000825764 
  1167         1170.683927  1117.52393  0.000856898 
  1177         1166.413014  1117.489046 0.000849618 
  1187         1162.81087   1117.454407 0.00084246 
  1204         1159.694394  1117.420018 0.000830565 
  1218         1156.9447    1117.385863 0.000821018 
  1155         1154.48466   1117.351943 0.000865801 
  1209         1152.262314  1117.318255 0.00082713 
  1225         1150.240743  1117.284787 0.000816327 
  1144         1148.393328  1117.251543 0.000874126 
  1190         1146.698584  1117.218509 0.000840336 
  1168         1145.139181  1117.185686 0.000856164 
  1133         1143.700693  1117.153072 0.000882613 
  1178         1142.370485  1117.120655 0.000848896 
  1180         1141.138178  1117.08844  0.000847458 
  1196         1139.994192  1117.056414 0.00083612 
  1145         1138.93018   1117.024577 0.000873362 
  1162         1137.938869  1116.99293  0.000860585 
  1125         1137.013565  1116.96146  0.000888889 
  1070         1136.148751  1116.930172 0.000934579 
  1135         1135.399128  1116.95903  0.000881057 
  1097         1134.64024   1116.928249 0.000911577 
  1146         1133.927803  1116.897639 0.0008726 
  1143         1133.257955  1116.867191 0.000874891 
  1114         1132.627534  1116.836905 0.000897666 
  1160         1132.03345   1116.80678  0.000862069 
  1082         1131.472915  1116.776808 0.000924214 
  1075         1130.943499  1116.746992 0.000930233 
  1074         1130.44284   1116.717322 0.000931099 
  1087         1129.969041  1116.6878   0.000919963 
  1121         1129.520193  1116.658424 0.000892061 
  1056         1129.094557  1116.629187 0.00094697 
  1065         1128.690622  1116.600092 0.000938967 
  1171         1128.306879  1116.57113  0.000853971 
  1093         1127.942144  1116.542302 0.000914913 
  1061         1127.595194  1116.513609 0.000942507 
  1099         1127.264897  1116.485041 0.000909918 
  1095         1126.950282  1116.456603 0.000913242 
  1122         1126.650351  1116.428287 0.000891266 
  1126         1126.364343  1116.400095 0.000888099 
  1130         1126.091443  1116.372021 0.000884956 
  1123         1125.830903  1116.344065 0.000890472 
  1115         1125.582075  1116.316227 0.000896861 
  1086         1125.344284  1116.288501 0.00092081 
  1091         1125.117031  1116.260889 0.00091659 
  1125         1124.899761  1116.233385 0.000888889 
  1138         1124.691966  1116.205988 0.000878735 
  1084         1124.493213  1116.1787   0.000922509 
  1050         1124.303031  1116.151515 0.000952381 
  1105         1124.121093  1116.124434 0.000904977 
  1134         1123.947018  1116.097452 0.000881834 
  1102         1123.78046   1116.07057  0.000907441 
  1084         1123.621123  1116.043787 0.000922509 
  1098         1123.468682  1116.017098 0.000910747 
  1119         1123.322923  1115.990504 0.000893655 
  1124         1123.18359   1115.964004 0.00088968 
  1117         1123.050445  1115.937593 0.000895255 
  1147         1122.923295  1115.911275 0.00087184 
  1185         1122.801915  1115.885043 0.000843882 
  1117         1122.686178  1115.858899 0.000895255 
  1081         1122.575912  1115.832842 0.000925069 
  1062         1122.470969  1115.806867 0.00094162 
  1036         1122.371228  1115.780978 0.000965251 
  1081         1122.276543  1115.755168 0.000925069 
  1135         1122.186854  1115.729439 0.000881057 
  1098         1122.102059  1115.70379  0.000910747 
  1089         1122.022079  1115.678218 0.000918274 
  1083         1121.946855  1115.652724 0.000923361 
  1092         1121.876307  1115.627304 0.000915751 
  1090         1121.810438  1115.601961 0.000917431 
  1058         1121.749199  1115.576689 0.00094518 
  1086         1121.692583  1115.55149  0.00092081 
  1083         1121.640586  1115.526363 0.000923361 
  1087         1121.59319   1115.501304 0.000919963 
  1131         1121.550459  1115.476316 0.000884173 
  1073         1121.512408  1115.451396 0.000931966 
  1038         1121.479094  1115.426542 0.000963391 
  1087         1121.450576  1115.401755 0.000919963 
  1047         1121.426905  1115.377033 0.00095511 
  1122         1121.398372  1115.352374 0.000891266 
  1128         1121.384772  1115.32778  0.000886525 
  1189         1121.37638   1115.303247 0.000841043 
  1077         1121.373329  1115.278777 0.000928505 
  1075         1121.375759  1115.254367 0.000930233 
  1130         1121.378977  1115.230017 0.000884956 
  1082         1121.39301   1115.205725 0.000924214 
  1078         1121.413182  1115.181491 0.000927644 
  1081         1121.439733  1115.157316 0.000925069 
  1075         1121.472924  1115.133196 0.000930233 
  1110         1121.513117  1115.109133 0.000900901 
  1115         1121.560624  1115.085124 0.000896861 
  1089         1121.615871  1115.061169 0.000918274 
  1098         1121.679258  1115.037269 0.000910747 
  1095         1121.751231  1115.01342  0.000913242 
  1112         1121.832367  1114.989624 0.000899281 
  1138         1121.9232    1114.96588  0.000878735 
  1128         1122.024419  1114.942185 0.000886525 
  1072         1122.136692  1114.918542 0.000932836 
  1055         1122.260777  1114.894947 0.000947867 
  1101         1122.39761   1114.871402 0.000908265 
  1123         1122.548095  1114.847904 0.000890472 
  1078         1122.713381  1114.824453 0.000927644 
  1087         1122.894612  1114.801051 0.000919963 
  1106         1123.093086  1114.777693 0.000904159 
  1119         1123.310386  1114.754382 0.000893655 
  1103         1123.5481    1114.731116 0.000906618 
  1118         1123.808213  1114.707894 0.000894454 
  1114         1124.092758  1114.684717 0.000897666 
  1106         1124.404077  1114.661582 0.000904159 
  1125         1124.744991  1114.638491 0.000888889 
  1115         1125.118453  1114.615442 0.000896861 
  1133         1125.545042  1114.609331 0.000882613 
  1158         1125.995013  1114.58645  0.000863558 
  1172         1126.48991   1114.563609 0.000853242 
  1161         1127.035703  1114.54081  0.000861326 
  1108         1127.639416  1114.51805  0.000902527 
  1095         1128.310731  1114.495331 0.000913242 
  1097         1129.0624    1114.472652 0.000911577 
  1117         1129.912951  1114.450011 0.000895255 
  1174         1130.890752  1114.42741  0.000851789 
  1150         1132.038664  1114.404846 0.000869565 
  1164         1133.42463   1114.38232  0.000859107 
  1205         1135.153146  1114.359833 0.000829876 
  1169         1137.384484  1114.337381 0.000855432 
  1153         1140.360992  1114.314966 0.000867303 
  1211         1144.433751  1114.292588 0.000825764 
  1186         1150.103774  1114.270244 0.00084317 
  1247         1158.051211  1114.247937 0.000801925 
  1215         1169.166128  1114.225664 0.000823045 
  1275         1184.574537  1114.203426 0.000784314 
  1304         1205.603969  1114.181222 0.000766871 
  1349         1233.768352  1114.159052 0.00074129 
  1375         1270.634895  1114.136916 0.000727273 
  1397         1317.685069  1114.114812 0.00071582 
  1450         1376.166069  1114.092741 0.000689655 
  1518         1446.776583  1114.070703 0.000658762 
  1535         1529.559664  1114.048697 0.000651466 
  1609         1623.578062  1114.026723 0.000621504 
  1742         1726.828567  1114.00478  0.000574053 
  1794         1836.244355  1113.982868 0.000557414 
  1958         1947.571294  1113.960987 0.000510725 
  1954         2055.677499  1113.939136 0.000511771 
  2072         2154.673883  1113.917317 0.000482625 
  2130         2238.590951  1113.895526 0.000469484 
  2191         2302.180686  1113.873766 0.000456413 
  2254         2341.887996  1113.852034 0.000443656 
  2258         2356.437007  1113.830332 0.00044287 
  2247         2346.742101  1113.808659 0.000445038 
  2200         2315.234937  1113.787013 0.000454545 
  2138         2264.827808  1113.765397 0.000467727 
  2146         2198.631242  1113.743808 0.000465983 
  2043         2119.527854  1113.722246 0.000489476 
  1959         2030.662606  1113.700713 0.000510465 
  1895         1935.474605  1113.679206 0.000527704 
  1778         1837.589462  1113.657727 0.00056243 
  1755         1740.622313  1113.636274 0.000569801 
  1672         1647.683549  1113.614847 0.000598086 
  1577         1561.258519  1113.593448 0.000634115 
  1520         1483.030077  1113.572073 0.000657895 
  1455         1413.999235  1113.550724 0.000687285 
  1385         1354.539043  1113.529402 0.000722022 
  1350         1304.503751  1113.508104 0.000740741 
  1310         1263.376203  1113.486832 0.000763359 
  1297         1230.309163  1113.465584 0.00077101 
  1271         1204.301962  1113.444361 0.000786782 
  1228         1184.253284  1113.423163 0.000814332 
  1203         1169.083495  1113.401988 0.000831255 
  1198         1157.786237  1113.380838 0.000834725 
  1179         1149.466244  1113.359712 0.000848176 
  1197         1143.378732  1113.338609 0.000835422 
  1172         1138.919361  1113.31753  0.000853242 
  1196         1135.623434  1113.296474 0.00083612 
  1190         1133.144378  1113.275442 0.000840336 
  1161         1131.231072  1113.254431 0.000861326 
  1163         1129.708951  1113.233444 0.000859845 
  1176         1128.458589  1113.21248  0.00085034 
  1171         1127.400468  1113.191538 0.000853971 
  1139         1126.482526  1113.170618 0.000877963 
  1142         1125.670294  1113.14972  0.000875657 
  1184         1124.941125  1113.128844 0.000844595 
  1170         1124.279692  1113.10799  0.000854701 
  1126         1123.675171  1113.087158 0.000888099 
  1102         1123.119846  1113.066347 0.000907441 
  1138         1122.607574  1113.045557 0.000878735 
  1136         1122.13348   1113.024788 0.000880282 
  1107         1121.693533  1113.004041 0.000903342 
  1123         1121.284226  1112.983314 0.000890472 
  1127         1120.902687  1112.962608 0.000887311 
  1119         1120.546259  1112.941923 0.000893655 
  1065         1120.212626  1112.921257 0.000938967 
  1118         1119.899765  1112.900613 0.000894454 
  1103         1119.60581   1112.879988 0.000906618 
  1106         1119.329217  1112.859384 0.000904159 
  1104         1119.068503  1112.838799 0.000905797 
  1159         1118.822355  1112.818234 0.000862813 
  1098         1118.589617  1112.79769  0.000910747 
  1141         1118.369194  1112.777164 0.000876424 
  1120         1118.160188  1112.756658 0.000892857 
  1133         1117.961718  1112.736171 0.000882613 
  1169         1117.772989  1112.715704 0.000855432 
  1076         1117.593303  1112.695256 0.000929368 
  1150         1117.421983  1112.674826 0.000869565 
  1131         1117.258482  1112.654416 0.000884173 
  1129         1117.102247  1112.634024 0.00088574 
  1126         1116.952775  1112.613651 0.000888099 
  1125         1116.809627  1112.593297 0.000888889 
  1158         1116.672364  1112.572961 0.000863558 
  1107         1116.540639  1112.552644 0.000903342 
  1128         1116.414091  1112.532344 0.000886525 
  1091         1116.29239   1112.512064 0.00091659 
  1154         1116.175247  1112.491801 0.000866551 
  1142         1116.062367  1112.471556 0.000875657 
  1153         1115.953524  1112.45133  0.000867303 
  1104         1115.848473  1112.431121 0.000905797 
  1111         1115.74699   1112.41093  0.00090009 
  1132         1115.64888   1112.390756 0.000883392 
  1162         1115.553938  1112.370601 0.000860585 
  1163         1115.46201   1112.350463 0.000859845 
  1167         1115.372927  1112.330342 0.000856898 
  1105         1115.286533  1112.31024  0.000904977 
  1088         1115.20269   1112.290154 0.000919118 
  1117         1115.121254  1112.270085 0.000895255 
  1091         1115.042119  1112.250035 0.00091659 
  1120         1114.965162  1112.230001 0.000892857 
  1163         1114.890271  1112.209984 0.000859845 
  1148         1114.817351  1112.189985 0.00087108 
  1110         1114.746295  1112.170002 0.000900901 
  1067         1114.677026  1112.150037 0.000937207 
  1073         1114.609457  1112.130088 0.000931966 
  1082         1114.543506  1112.110156 0.000924214 
  1119         1114.479102  1112.090241 0.000893655 
  1140         1114.416166  1112.070343 0.000877193 
  1150         1114.354643  1112.050462 0.000869565 
  1130         1114.294468  1112.030597 0.000884956 
  1115         1114.235579  1112.010749 0.000896861 
  1149         1114.177925  1111.990918 0.000870322 
  1164         1114.121444  1111.971103 0.000859107 
  1095         1114.066098  1111.951305 0.000913242 
  1113         1114.084017  1112.003705 0.000898473 
  1095         1114.030956  1111.984104 0.000913242 
  1139         1113.978895  1111.964519 0.000877963 
  1122         1113.927785  1111.944952 0.000891266 
  1133         1113.877598  1111.925402 0.000882613 
  1137         1113.828296  1111.905869 0.000879507 
  1162         1113.779842  1111.886352 0.000860585 
  1085         1113.732206  1111.866853 0.000921659 
  1123         1113.685353  1111.84737  0.000890472 
  1120         1113.639259  1111.827905 0.000892857 
  1153         1113.593895  1111.808456 0.000867303 
  1131         1113.549233  1111.789024 0.000884173 
  1133         1113.505249  1111.769609 0.000882613 
  1069         1113.461915  1111.750211 0.000935454 
  1067         1113.419213  1111.73083  0.000937207 
  1095         1113.37712   1111.711466 0.000913242 
  1179         1113.335613  1111.692118 0.000848176 
  1084         1113.294676  1111.672788 0.000922509 
  1101         1113.254283  1111.653474 0.000908265 
  1123         1113.214423  1111.634177 0.000890472 
  1098         1113.175075  1111.614898 0.000910747 
  1105         1113.136223  1111.595635 0.000904977 
  1090         1113.114486  1111.576389 0.000917431 
  1096         1113.076608  1111.55716  0.000912409 
  1150         1113.039182  1111.537948 0.000869565 
  1139         1113.002194  1111.518753 0.000877963 
  1103         1112.965627  1111.499575 0.000906618 
  1143         1112.929472  1111.480415 0.000874891 
  1100         1112.893711  1111.461271 0.000909091 
  1139         1112.858339  1111.442145 0.000877963 
  1198         1112.823342  1111.423035 0.000834725 
  1119         1112.672082  1111.287317 0.000893655 
  1162         1112.638053  1111.268492 0.000860585 
  1116         1112.612685  1111.249684 0.000896057 
  1124         1112.579346  1111.230893 0.00088968 
  1158         1112.546331  1111.212118 0.000863558 
  1127         1112.513631  1111.19336  0.000887311 
  1105         1112.481237  1111.174618 0.000904977 
  1121         1112.44914   1111.155893 0.000892061 
  1157         1112.417335  1111.137185 0.000864304 
  1127         1112.385812  1111.118493 0.000887311 
  1114         1112.354564  1111.099819 0.000897666 
  1142         1112.323585  1111.081162 0.000875657 
  1111         1112.292866  1111.062521 0.00090009 
  1068         1112.262404  1111.043898 0.00093633 
  1071         1112.23219   1111.025292 0.000933707 
  1121         1112.202218  1111.006704 0.000892061 
  1109         1112.172485  1110.988133 0.000901713 
  1144         1112.14298   1110.969579 0.000874126 
  1132         1112.113703  1110.951043 0.000883392 
  1127         1112.084646  1110.932524 0.000887311 
  1185         1112.055805  1110.914023 0.000843882 
  1179         1112.027175  1110.89554  0.000848176 
  1169         1111.998749  1110.877075 0.000855432 
  1147         1111.970527  1110.858629 0.00087184 
  1150         1111.942501  1110.8402   0.000869565 
  1117         1111.914668  1110.821789 0.000895255 
  1131         1111.887025  1110.803397 0.000884173 
  1108         1111.859565  1110.785024 0.000902527 
  1153         1111.832288  1110.766669 0.000867303 
  1119         1111.805188  1110.748333 0.000893655 
  1129         1111.779621  1110.730015 0.00088574 
  1090         1111.752868  1110.711717 0.000917431 
  1109         1111.726281  1110.693438 0.000901713 
  1059         1111.69986   1110.675179 0.000944287 
  1131         1111.761602  1110.743138 0.000884173 
  1143         1111.7358    1110.725215 0.000874891 
  1125         1111.710156  1110.707315 0.000888889 
  1174         1111.684665  1110.689435 0.000851789 
  1082         1111.659327  1110.671578 0.000924214 
  1120         1111.634138  1110.653742 0.000892857 
  1147         1111.609096  1110.635929 0.00087184 
  1146         1111.584199  1110.618137 0.0008726 
  1085         1111.559443  1110.600368 0.000921659 
  1081         1111.534829  1110.582622 0.000925069 
  1100         1111.510352  1110.564898 0.000909091 
  1160         1111.486691  1110.547198 0.000862069 
  1111         1111.462486  1110.529521 0.00090009 
  1131         1111.438412  1110.511867 0.000884173 
  1076         1111.41447   1110.494238 0.000929368 
  1086         1111.391558  1110.476632 0.00092081 
  1117         1111.367872  1110.45905  0.000895255 
  1068         1111.344313  1110.441493 0.00093633 
  1072         1111.320878  1110.42396  0.000932836 
  1110         1111.297566  1110.406453 0.000900901 
  1167         1111.274375  1110.388971 0.000856898 
  1140         1111.251305  1110.371515 0.000877193 
  1135         1111.228355  1110.354084 0.000881057 
  1171         1111.205521  1110.336679 0.000853971 
  1118         1111.182806  1110.319302 0.000894454 
  1036         1111.160206  1110.30195  0.000965251 
  1049         1111.137721  1110.284626 0.000953289 
  1079         1111.11586   1110.267329 0.000926784 
  1122         1111.093602  1110.25006  0.000891266 
  1112         1111.071458  1110.232819 0.000899281 
  1072         1111.049425  1110.215606 0.000932836 
  1104         1111.027503  1110.198423 0.000905797 
  1154         1111.005692  1110.181268 0.000866551 
  1132         1110.983991  1110.164143 0.000883392 
  1128         1110.962399  1110.147048 0.000886525 
  1126         1110.940917  1110.129983 0.000888099 
  1115         1110.919543  1110.112949 0.000896861 
  1123         1110.898278  1110.095947 0.000890472 
  1125         1110.877121  1110.078976 0.000888889 
  1086         1110.856073  1110.062037 0.00092081 
  1101         1110.835133  1110.045131 0.000908265 
  1103         1110.8143    1110.028257 0.000906618 
  1097         1110.793831  1110.011418 0.000911577 
  1109         1110.773215  1109.994612 0.000901713 
  1144         1110.752708  1109.977841 0.000874126 
  1115         1110.732309  1109.961105 0.000896861 
  1115         1110.71202   1109.944405 0.000896861 
  1133         1110.69184   1109.927741 0.000882613 
  1071         1110.671769  1109.911114 0.000933707 
  1097         1110.651809  1109.894525 0.000911577 
  1118         1110.63196   1109.877973 0.000894454 
  1133         1110.612223  1109.86146  0.000882613 
  1164         1110.592599  1109.844986 0.000859107 
  1097         1110.573088  1109.828553 0.000911577 
  1073         1110.553692  1109.81216  0.000931966 
  1095         1110.534411  1109.795809 0.000913242 
  1091         1110.515247  1109.7795   0.00091659 
  1135         1110.496201  1109.763233 0.000881057 
  1059         1110.477274  1109.747011 0.000944287 
  1035         1110.349755  1109.622119 0.000966184 
  1072         1110.331392  1109.606306 0.000932836 
  1063         1110.313152  1109.590537 0.000940734 
  1080         1110.295037  1109.574815 0.000925926 
  1123         1110.277049  1109.559139 0.000890472 
  1141         1110.259191  1109.543511 0.000876424 
  1056         1110.241465  1109.527932 0.00094697 
  1131         1110.223873  1109.512402 0.000884173 
  1068         1110.206418  1109.496922 0.00093633 
  1104         1110.189104  1109.481495 0.000905797 
  1114         1110.171933  1109.466121 0.000897666 
  1064         1110.154909  1109.450801 0.00093985 
  1070         1110.138035  1109.435536 0.000934579 
  1069         1110.121315  1109.420327 0.000935454 
  1081         1110.104753  1109.405176 0.000925069 
  1131         1110.088355  1109.390085 0.000884173 
  1074         1110.072124  1109.375054 0.000931099 
  1071         1110.056065  1109.360085 0.000933707 
  1091         1110.040185  1109.345178 0.00091659 
  1137         1110.024489  1109.330338 0.000879507 
  1108         1110.008983  1109.315564 0.000902527 
  1083         1109.993674  1109.300857 0.000923361 
  1106         1109.978569  1109.286221 0.000904159 
  1103         1109.963676  1109.271655 0.000906618 
  1090         1109.949003  1109.257164 0.000917431 
  1074         1109.93456   1109.242748 0.000931099 
  1069         1109.920355  1109.228408 0.000935454 
  1069         1109.9064    1109.214149 0.000935454 
  1098         1109.892705  1109.19997  0.000910747 
  1102         1109.879283  1109.185875 0.000907441 
  1093         1109.866146  1109.171866 0.000914913 
  1052         1109.85331   1109.157944 0.00095057 
  1056         1109.840789  1109.144114 0.00094697 
  1061         1109.8286    1109.130376 0.000942507 
  1086         1109.816763  1109.116734 0.00092081 
  1098         1109.805296  1109.103192 0.000910747 
  1123         1109.79422   1109.08975  0.000890472 
  1087         1109.783561  1109.076412 0.000919963 
  1076         1109.773344  1109.063182 0.000929368 
  1110         1109.763598  1109.050063 0.000900901 
  1078         1109.754353  1109.037059 0.000927644 
  1096         1109.745645  1109.024171 0.000912409 
  1086         1109.737511  1109.011406 0.00092081 
  1060         1109.729995  1108.998764 0.000943396 
  1040         1109.723143  1108.986253 0.000961538 
  1052         1109.717006  1108.973875 0.00095057 
  1094         1109.711644  1108.961634 0.000914077 
  1064         1109.70712   1108.949537 0.00093985 
  1040         1109.703511  1108.937585 0.000961538 
  1079         1109.700901  1108.925786 0.000926784 
  1093         1109.699384  1108.914146 0.000914913 
  1099         1109.69908   1108.902666 0.000909918 
  1113         1109.700126  1108.891357 0.000898473 
  1066         1109.702705  1108.88022  0.000938086 
  1091         1109.707053  1108.869266 0.00091659 
  1148         1109.713489  1108.8585   0.00087108 
  1080         1109.722489  1108.847927 0.000925926 
  1072         1109.734732  1108.837557 0.000932836 
  1051         1109.751256  1108.827395 0.000951475 
  1057         1109.773603  1108.817452 0.000946074 
  1093         1109.804062  1108.807737 0.000914913 
  1112         1109.846043  1108.798253 0.000899281 
  1041         1109.90441   1108.789017 0.000960615 
  1153         1109.986086  1108.780033 0.000867303 
  1045         1110.100518  1108.771316 0.000956938 
  1080         1110.260228  1108.762875 0.000925926 
  1061         1110.481487  1108.75472  0.000942507 
  1074         1110.784216  1108.746867 0.000931099 
  1102         1111.192416  1108.739325 0.000907441 
  1073         1111.733073  1108.732112 0.000931966 
  1053         1112.43494   1108.725242 0.000949668 
  1070         1113.327381  1108.718725 0.000934579 
  1055         1114.436119  1108.712585 0.000947867 
  1145         1115.781953  1108.706834 0.000873362 
  1107         1117.375291  1108.701494 0.000903342 
  1113         1119.213057  1108.696584 0.000898473 
  1079         1121.277695  1108.692121 0.000926784 
  1100         1123.531255  1108.688134 0.000909091 
  1101         1125.91869   1108.684639 0.000908265 
  1095         1128.364684  1108.68167  0.000913242 
  1023         1130.776478  1108.679249 0.000977517 
  1093         1133.050322  1108.677401 0.000914913 
  1091         1135.073912  1108.676165 0.00091659 
  1087         1136.741711  1108.675567 0.000919963 
  1086         1137.968057  1108.675648 0.00092081 
  1091         1138.701264  1108.676445 0.00091659 
  1105         1138.931158  1108.67799  0.000904977 
  1076         1138.682917  1108.680339 0.000929368 
  1093         1138.003097  1108.683529 0.000914913 
  1079         1136.948932  1108.687618 0.000926784 
  1057         1135.576779  1108.692659 0.000946074 
  1078         1133.956521  1108.698702 0.000927644 
  1079         1132.107991  1108.705823 0.000926784 
  1072         1130.104404  1108.714078 0.000932836 
  1095         1128.008949  1108.723554 0.000913242 
  1091         1125.887662  1108.734327 0.00091659 
  1082         1123.801837  1108.746474 0.000924214 
  1071         1121.806581  1108.760106 0.000933707 
  1058         1119.944324  1108.775312 0.00094518 
  1109         1118.245364  1108.792219 0.000901713 
  1119         1116.729391  1108.810945 0.000893655 
  1074         1115.404256  1108.831612 0.000931099 
  1091         1114.270501  1108.854389 0.00091659 
  1098         1113.329526  1108.879416 0.000910747 
  1106         1112.551025  1108.906894 0.000904159 
  1075         1111.927275  1108.937009 0.000930233 
  1044         1111.438899  1108.969962 0.000957854 
  1105         1111.066367  1109.006021 0.000904977 
  1089         1110.790368  1109.045422 0.000918274 
  1074         1110.592933  1109.08849  0.000931099 
  1080         1110.458399  1109.135539 0.000925926 
  1068         1110.373288  1109.186915 0.00093633 
  1071         1110.326847  1109.243064 0.000933707 
  1049         1110.310562  1109.304405 0.000953289 
  1085         1110.318094  1109.371495 0.000921659 
  1101         1110.344909  1109.444896 0.000908265 
  1039         1110.387882  1109.525236 0.000962464 
  1144         1110.445183  1109.613312 0.000874126 
  1127         1110.515758  1109.709914 0.000887311 
  1073         1110.599369  1109.81607  0.000931966 
  1043         1110.696249  1109.932857 0.000958773 
  1070         1110.807032  1110.061504 0.000934579 
  1069         1110.932878  1110.20356  0.000935454 
  1095         1111.075117  1110.360637 0.000913242 
  1113         1111.235622  1110.53481  0.000898473 
  1043         1111.416517  1110.728348 0.000958773 
  1030         1111.620326  1110.9439   0.000970874 
  1089         1111.850299  1111.184808 0.000918274 
  1078         1112.110021  1111.454737 0.000927644 
  1045         1112.404137  1111.7584   0.000956938 
  1075         1112.73799   1112.101199 0.000930233 
  1057         1113.118025  1112.489633 0.000946074 
  1075         1113.552497  1112.932002 0.000930233 
  1070         1114.051011  1113.437953 0.000934579 
  1090         1114.626099  1114.020056 0.000917431 
  1111         1115.292928  1114.693508 0.00090009 
  1110         1116.070556  1115.477402 0.000900901 
  1111         1116.984053  1116.396831 0.00090009 
  1084         1118.064586  1117.48299  0.000922509 
  1111         1119.354153  1118.777897 0.00090009 
  1105         1120.907126  1120.335944 0.000904977 
  1086         1122.796124  1122.229771 0.00092081 
  1093         1125.121823  1124.560069 0.000914913 
  1132         1128.020424  1127.463054 0.000883392 
  1154         1131.686826  1131.13364  0.000866551 
  1155         1136.39568   1135.84649  0.000865801 
  1171         1142.5417    1141.996331 0.000853971 
  1162         1150.701794  1150.160082 0.000860585 
  1180         1161.690343  1161.152132 0.000847458 
  1219         1176.633743  1176.098888 0.000820345 
  1238         1196.869972  1196.338336 0.000807754 
  1283         1223.359538  1222.830992 0.000779423 
  1229         1254.807872  1254.282295 0.00081367 
  1245         1284.112425  1283.5897   0.000803213 
  1295         1297.92804   1297.40806  0.000772201 
  1277         1287.456838  1286.939498 0.000783085 
  1259         1259.502672  1258.987876 0.000794281 
  1252         1227.708774  1227.196429 0.000798722 
  1212         1200.277398  1199.767415 0.000825083 
  1202         1179.119861  1178.612157 0.000831947 
  1242         1163.448678  1162.943173 0.000805153 
  1197         1151.922939  1151.419557 0.000835422 
  1144         1143.371914  1142.870584 0.000874126 
  1114         1136.939126  1136.439777 0.000897666 
  1084         1132.015599  1131.518166 0.000922509 
  1085         1128.18441   1127.68883  0.000921659 
  1105         1125.155782  1124.661995 0.000904977 
  1084         1122.724508  1122.232456 0.000922509 
  1142         1120.747456  1120.257084 0.000875657 
  1114         1119.119122  1118.630376 0.000897666 
  1118         1117.76354   1117.27637  0.000894454 
  1133         1116.623965  1116.138322 0.000882613 
  1118         1115.656649  1115.172486 0.000894454 
  1148         1114.829173  1114.346444 0.00087108 
  1110         1114.115501  1113.634164 0.000900901 
  1122         1113.495859  1113.015871 0.000891266 
  1080         1112.954525  1112.475846 0.000925926 
  1072         1112.46466   1112.001111 0.000932836 
  1067         1112.044061  1111.581716 0.000937207 
  1031         1111.670287  1111.209109 0.000969932 
  1024         1111.336652  1110.876606 0.000976562 
  1082         1111.037605  1110.578658 0.000924214 
  1046         1110.768302  1110.31042  0.000956023 
  1116         1110.518063  1110.06814  0.000896057 
  1080         1110.297323  1109.848389 0.000925926 
  1090         1110.096436  1109.64846  0.000917431 
  1073         1109.913078  1109.466031 0.000931966 
  1061         1109.745127  1109.298981 0.000942507 
  1068         1109.590941  1109.145668 0.00093633 
  1084         1109.448934  1109.004509 0.000922509 
  1044         1109.317861  1108.874256 0.000957854 
  1113         1109.196621  1108.753812 0.000898473 
  1058         1109.084166  1108.642128 0.00094518 
  1049         1108.979699  1108.538408 0.000953289 
  1065         1108.882405  1108.441838 0.000938967 
  1076         1108.791654  1108.351787 0.000929368 
  1087         1108.706871  1108.267683 0.000919963 
  1111         1108.627493  1108.188961 0.00090009 
  1071         1108.553102  1108.115205 0.000933707 
  1053         1108.483241  1108.045958 0.000949668 
  1103         1108.417568  1107.980879 0.000906618 
  1083         1108.355764  1107.91965  0.000923361 
  1072         1108.297502  1107.861942 0.000932836 
  1069         1108.242549  1107.807524 0.000935454 
  1069         1108.190633  1107.756125 0.000935454 
  1043         1108.14156   1107.70755  0.000958773 
  1046         1108.095141  1107.661611 0.000956023 
  1068         1108.051175  1107.618107 0.00093633 
  1078         1108.00953   1107.576905 0.000927644 
  1043         1107.970032  1107.537835 0.000958773 
  1051         1107.932569  1107.500782 0.000951475 
  1072         1107.866156  1107.465631 0.000932836 
  1012         1107.832462  1107.432252 0.000988142 
  1004         1107.80048   1107.400568 0.000996016 
  1065         1107.770096  1107.370467 0.000938967 
  1086         1107.741242  1107.341881 0.00092081 
  1086         1107.713844  1107.314737 0.00092081 
  1098         1107.672393  1107.288948 0.000910747 
  1104         1107.647725  1107.264472 0.000905797 
  1071         1107.624306  1107.24123  0.000933707 
  1061         1107.602098  1107.219183 0.000942507 
  1093         1107.581051  1107.198285 0.000914913 
  1103         1107.561108  1107.178476 0.000906618 
  1045         1107.542246  1107.159734 0.000956938 
  1066         1107.524409  1107.142004 0.000938086 
  1065         1107.507577  1107.125265 0.000938967 
  1085         1107.491719  1107.109486 0.000921659 
  1056         1107.476795  1107.094628 0.00094697 
  1065         1107.462795  1107.080681 0.000938967 
  1076         1107.449678  1107.067604 0.000929368 
  1094         1107.437439  1107.055392 0.000914077 
  1038         1107.426055  1107.044022 0.000963391 
  1017         1107.4155    1107.033468 0.000983284 
  1057         1107.405775  1107.023732 0.000946074 
  1067         1107.396848  1107.014781 0.000937207 
  1047         1107.388724  1107.00662  0.00095511 
  1108         1107.381388  1106.999235 0.000902527 
  1072         1107.374823  1106.992608 0.000932836 
  1091         1107.369037  1106.986748 0.00091659 
  1061         1107.364005  1106.981631 0.000942507 
  1075         1107.359742  1106.977269 0.000930233 
  1134         1107.356236  1106.973654 0.000881834 
  1059         1107.35348   1106.970775 0.000944287 
  1102         1107.351485  1106.968646 0.000907441 
  1103         1107.350235  1106.967251 0.000906618 
  1102         1107.349749  1106.966606 0.000907441 
  1089         1107.350022  1106.96671  0.000918274 
  1084         1107.35105   1106.967556 0.000922509 
  995          1107.352853  1106.969165 0.001005025 
  1020         1107.355417  1106.971525 0.000980392 
  1089         1107.358769  1106.97466  0.000918274 
  1073         1107.362907  1106.978569 0.000931966 
  1048         1107.367833  1106.983255 0.000954198 
  1079         1107.373572  1106.988742 0.000926784 
  1082         1107.380115  1106.995021 0.000924214 
  1071         1107.387494  1107.002125 0.000933707 
  1120         1107.395713  1107.010057 0.000892857 
  1107         1107.404777  1107.018822 0.000903342 
  1118         1107.414718  1107.028453 0.000894454 
  1094         1107.425531  1107.038945 0.000914077 
  1049         1107.437255  1107.050335 0.000953289 
  1055         1107.449898  1107.062633 0.000947867 
  1070         1107.463879  1107.075847 0.000934579 
  1050         1107.478419  1107.090018 0.000952381 
  1047         1107.493928  1107.105146 0.00095511 
  1087         1107.51045   1107.121276 0.000919963 
  1124         1107.527998  1107.13842  0.00088968 
  1082         1107.546589  1107.156595 0.000924214 
  1078         1107.56627   1107.175848 0.000927644 
  1100         1107.587046  1107.196184 0.000909091 
  1106         1107.60897   1107.217657 0.000904159 
  1072         1107.632063  1107.240287 0.000932836 
  1083         1107.656346  1107.264094 0.000923361 
  1114         1107.681878  1107.289139 0.000897666 
  1053         1107.708872  1107.315429 0.000949668 
  1028         1107.736986  1107.343032 0.000972763 
  1035         1107.766451  1107.371974 0.000966184 
  1081         1107.797296  1107.402283 0.000925069 
  1083         1107.829593  1107.434031 0.000923361 
  1035         1107.863357  1107.467235 0.000966184 
  1053         1107.89867   1107.501976 0.000949668 
  1008         1107.935566  1107.538287 0.000992063 
  1040         1107.974086  1107.57621  0.000961538 
  1050         1108.014318  1107.615831 0.000952381 
  1089         1108.056285  1107.657176 0.000918274 
  1090         1108.100088  1107.700343 0.000917431 
  1075         1108.145772  1107.74538  0.000930233 
  1092         1108.193393  1107.79234  0.000915751 
  1102         1108.243057  1107.841331 0.000907441 
  1023         1108.294802  1107.89239  0.000977517 
  1035         1108.34875   1107.945638 0.000966184 
  1179         1108.404965  1108.001141 0.000848176 
  1123         1108.463519  1108.058969 0.000890472 
  1174         1108.524545  1108.119256 0.000851789 
  1032         1108.588099  1108.182057 0.000968992 
  1060         1108.654333  1108.247525 0.000943396 
  1143         1108.723333  1108.315745 0.000874891 
  1100         1108.795194  1108.386813 0.000909091 
  1100         1108.870088  1108.4609   0.000909091 
  1073         1108.948092  1108.538083 0.000931966 
  1065         1109.029401  1108.618557 0.000938967 
  1088         1109.114133  1108.702439 0.000919118 
  1073         1109.202414  1108.789856 0.000931966 
  1090         1109.294467  1108.881031 0.000917431 
  1079         1109.390401  1108.976073 0.000926784 
  1052         1109.49047   1109.075233 0.00095057 
  1065         1109.594833  1109.178674 0.000938967 
  1098         1109.703666  1109.28657  0.000910747 
  1116         1109.817259  1109.399211 0.000896057 
  1061         1109.935773  1109.516758 0.000942507 
  1068         1110.059536  1109.639537 0.00093633 
  1084         1110.188774  1109.767777 0.000922509 
  1089         1110.323732  1109.901721 0.000918274 
  1036         1110.464797  1110.041756 0.000965251 
  1077         1110.612202  1110.188115 0.000928505 
  1091         1110.766387  1110.341237 0.00091659 
  1121         1110.927674  1110.501446 0.000892061 
  1100         1111.096412  1110.669088 0.000909091 
  1062         1111.273124  1110.844688 0.00094162 
  1039         1111.458157  1111.028591 0.000962464 
  1038         1111.652116  1111.221404 0.000963391 
  1098         1111.855467  1111.423592 0.000910747 
  1095         1112.068713  1111.635657 0.000913242 
  1106         1112.292591  1111.858336 0.000904159 
  1091         1112.527618  1112.092147 0.00091659 
  1073         1112.774648  1112.337942 0.000931966 
  1070         1113.034373  1112.596414 0.000934579 
  1103         1113.307544  1112.868313 0.000906618 
  1109         1113.595215  1113.154693 0.000901713 
  1077         1113.898187  1113.456355 0.000928505 
  1070         1114.217698  1113.774538 0.000934579 
  1105         1114.554806  1114.110297 0.000904977 
  1117         1114.91066   1114.464782 0.000895255 
  1093         1115.286828  1114.839562 0.000914913 
  1113         1115.684579  1115.235904 0.000898473 
  1112         1116.105774  1115.655669 0.000899281 
  1087         1116.552086  1116.100532 0.000919963 
  1088         1117.025332  1116.572305 0.000919118 
  1041         1117.527943  1117.073423 0.000960615 
  1089         1118.061984  1117.60595  0.000918274 
  1056         1118.630394  1118.172823 0.00094697 
  1037         1119.235902  1118.776772 0.00096432 
  1033         1119.881519  1119.420807 0.000968054 
  1068         1120.57117   1120.108852 0.00093633 
  1088         1121.308397  1120.844451 0.000919118 
  1074         1122.09803   1121.632432 0.000931099 
  1122         1122.944768  1122.477494 0.000891266 
  1069         1123.853851  1123.384875 0.000935454 
  1067         1124.831964  1124.361263 0.000937207 
  1103         1125.885478  1125.413026 0.000906618 
  1083         1127.022849  1126.54862  0.000923361 
  1067         1128.25262   1127.776589 0.000937207 
  1143         1129.584455  1129.106595 0.000874891 
  1028         1131.03055   1130.550834 0.000972763 
  1147         1132.603109  1132.12151  0.00087184 
  1112         1134.317968  1133.834458 0.000899281 
  1145         1136.191854  1135.706406 0.000873362 
  1088         1138.243929  1137.756513 0.000919118 
  1031         1140.49826   1140.008847 0.000969932 
  1074         1142.980114  1142.488675 0.000931099 
  1132         1145.721884  1145.228388 0.000883392 
  1100         1148.759175  1148.263592 0.000909091 
  1114         1152.133625  1151.635924 0.000897666 
  1167         1155.897519  1155.397667 0.000856898 
  1115         1160.108398  1159.606365 0.000896861 
  1132         1164.837731  1164.335615 0.000883392 
  1165         1170.173842  1169.669473 0.000858369 
  1120         1176.215232  1175.708576 0.000892857 
  1103         1183.089117  1182.58014  0.000906618 
  1204         1190.941529  1190.430196 0.000830565 
  1139         1199.959658  1199.445933 0.000877963 
  1256         1210.363195  1209.848107 0.000796178 
  1258         1222.422932  1221.905376 0.000794913 
  1243         1236.477384  1235.957321 0.000804505 
  1209         1252.923237  1252.40063  0.00082713 
  1265         1272.259005  1271.733813 0.000790514 
  1287         1295.062398  1294.534582 0.000777001 
  1352         1321.998679  1321.468197 0.000739645 
  1359         1353.82469   1353.291501 0.000735835 
  1421         1391.261414  1390.725475 0.00070373 
  1465         1434.913584  1434.374851 0.000682594 
  1524         1484.904734  1484.363164 0.000656168 
  1611         1540.414245  1539.869792 0.000620732 
  1648         1599.061843  1598.514461 0.000606796 
  1679         1656.143833  1655.593475 0.000595593 
  1727         1704.673702  1704.12032  0.000579039 
  1735         1736.492914  1735.936458 0.000576369 
  1678         1745.081053  1744.521474 0.000595948 
  1646         1728.515765  1727.953011 0.000607533 
  1648         1690.463504  1689.897523 0.000606796 
  1637         1638.304249  1637.734987 0.000610874 
  1555         1580.061987  1579.489392 0.000643087 
  1514         1522.070896  1521.494909 0.000660502 
  1504         1468.186607  1467.607172 0.000664894 
  1459         1420.251572  1419.668631 0.000685401 
  1448         1378.672631  1378.086124 0.000690608 
  1416         1343.14246   1342.552327 0.000706215 
  1398         1313.010897  1312.417075 0.000715308 
  1394         1287.508685  1286.911109 0.00071736 
  1328         1265.926567  1265.325174 0.000753012 
  1275         1247.607181  1247.001902 0.000784314 
  1221         1232.005818  1231.396585 0.000819001 
  1216         1218.66527   1218.052014 0.000822368 
  1241         1207.19774   1206.580388 0.000805802 
  1199         1197.298136  1196.676615 0.000834028 
  1184         1188.705587  1188.079821 0.000844595 
  1251         1181.214257  1180.58417  0.000799361 
  1194         1174.654576  1174.020089 0.000837521 
  1135         1168.881908  1168.242939 0.000881057 
  1216         1163.783295  1163.139762 0.000822368 
  1064         1159.259389  1158.611205 0.00093985 
  1143         1155.231433  1154.578513 0.000874891 
  1103         1151.633278  1150.97553  0.000906618 
  1123         1148.406369  1147.743702 0.000890472 
  1114         1145.504953  1144.837273 0.000897666 
  1128         1142.886988  1142.214197 0.000886525 
  1121         1140.518935  1139.840934 0.000892061 
  1101         1138.372015  1137.688702 0.000908265 
  1118         1136.419712  1135.730981 0.000894454 
  1144         1134.641425  1133.947169 0.000874126 
  1063         1133.017322  1132.31743  0.000940734 
  1110         1131.531603  1130.825961 0.000900901 
  1106         1130.170473  1129.458963 0.000904159 
  1152         1128.920693  1128.203194 0.000868056 
  1129         1127.77213   1127.04852  0.00088574 
  1150         1126.714569  1125.984718 0.000869565 
  1117         1125.739919  1125.003698 0.000895255 
  1107         1124.841065  1124.098337 0.000903342 
  1115         1124.010847  1123.261473 0.000896861 
  1138         1123.243931  1122.487769 0.000878735 
  1157         1122.534697  1121.771597 0.000864304 
  1167         1121.878728  1121.10854  0.000856898 
  1097         1121.272147  1120.494711 0.000911577 
  1108         1120.710857  1119.926012 0.000902527 
  1082         1120.191907  1119.399488 0.000924214 
  1090         1119.712068  1118.9119   0.000917431 
  1165         1119.268815  1118.460723 0.000858369 
  1110         1118.859988  1118.043786 0.000900901 
  1085         1118.483148  1117.658647 0.000921659 
  1125         1118.136634  1117.30364  0.000888889 
  1140         1117.818555  1116.976863 0.000877193 
  1099         1117.527452  1116.676856 0.000909918 
  1097         1117.262144  1116.402425 0.000911577 
  1116         1117.021169  1116.152103 0.000896057 
  1084         1116.803622  1115.924982 0.000922509 
  1099         1116.608439  1115.719981 0.000909918 
  1058         1116.434807  1115.536287 0.00094518 
  1044         1116.282171  1115.37333  0.000957854 
  1046         1116.149701  1115.230271 0.000956023 
  1100         1116.036987  1115.106697 0.000909091 
  1133         1115.943536  1115.002097 0.000882613 
  1123         1115.868978  1114.916098 0.000890472 
  1085         1115.813225  1114.848592 0.000921659 
  1111         1115.775909  1114.799206 0.00090009 
  1093         1115.756997  1114.767894 0.000914913 
  1061         1115.756469  1114.75462  0.000942507 
  1042         1115.774316  1114.759368 0.000959693 
  1070         1115.810863  1114.78244  0.000934579 
  1103         1115.866156  1114.823872 0.000906618 
  1077         1115.940529  1114.883986 0.000928505 
  1095         1116.034418  1114.963195 0.000913242 
  1077         1116.148197  1115.061861 0.000928505 
  1120         1116.282647  1115.180741 0.000892857 
  1083         1116.438277  1115.320328 0.000923361 
  1073         1116.615848  1115.481369 0.000931966 
  1093         1116.816372  1115.664842 0.000914913 
  1074         1117.040703  1115.871592 0.000931099 
  1113         1117.29024   1116.102983 0.000898473 
  1114         1117.566114  1116.360125 0.000897666 
  1050         1117.869718  1116.644391 0.000952381 
  1134         1118.202877  1116.957567 0.000881834 
  1113         1118.567188  1117.301231 0.000898473 
  1101         1118.965014  1117.677704 0.000908265 
  1081         1119.398448  1118.089051 0.000925069 
  1027         1119.869937  1118.53769  0.00097371 
  1089         1120.382628  1119.026718 0.000918274 
  1073         1120.9394    1119.558988 0.000931966 
  1105         1121.544255  1120.138445 0.000904977 
  1101         1122.200992  1120.768851 0.000908265 
  1170         1122.913962  1121.454515 0.000854701 
  1123         1123.688685  1122.200892 0.000890472 
  1067         1124.530447  1123.01323  0.000937207 
  1068         1125.446324  1123.898531 0.00093633 
  1089         1126.443395  1124.863817 0.000918274 
  1082         1127.529752  1125.917126 0.000924214 
  1120         1128.715583  1127.068557 0.000892857 
  1106         1130.011113  1128.328275 0.000904159 
  1139         1131.429676  1129.709517 0.000877963 
  1159         1132.985275  1131.226206 0.000862813 
  1162         1134.694061  1132.894412 0.000860585 
  1117         1136.576322  1134.734298 0.000895255 
  1138         1138.653389  1136.767111 0.000878735 
  1120         1140.952748  1139.020197 0.000892857 
  1119         1143.504583  1141.523623 0.000893655 
  1104         1146.344396  1144.312773 0.000905797 
  1088         1149.516884  1147.432166 0.000919118 
  1100         1153.071507  1150.931134 0.000909091 
  1124         1157.071889  1154.873097 0.00088968 
  1102         1161.591183  1159.331036 0.000907441 
  1123         1166.71784   1164.393217 0.000890472 
  1159         1172.564661  1170.172184 0.000862813 
  1147         1179.263316  1176.799405 0.00087184 
  1162         1186.98498   1184.445751 0.000860585 
  1177         1195.936605  1193.317907 0.000849618 
  1157         1206.377354  1203.674745 0.000864304 
  1173         1218.65096   1215.854099 0.000852515 
  1244         1233.162665  1230.271891 0.000803859 
  1267         1250.469448  1247.479133 0.000789266 
  1302         1271.266971  1268.17105  0.000768049 
  1325         1296.449175  1293.241111 0.000754717 
  1339         1327.189291  1323.86192  0.000746826 
  1392         1364.941048  1361.486645 0.000718391 
  1435         1411.547662  1407.957727 0.000696864 
  1471         1469.131309  1465.396581 0.00067981 
  1584         1539.870989  1535.981338 0.000631313 
  1663         1625.386681  1621.330821 0.000601323 
  1783         1725.057296  1720.822765 0.000560852 
  1879         1833.542816  1829.115485 0.000532198 
  1958         1937.470326  1932.834127 0.000510725 
  1952         2015.19699   2010.330559 0.000512295 
  1945         2044.166186  2039.049999 0.000514139 
  2020         2014.490037  2009.097049 0.00049505 
  1907         1936.42456   1930.720606 0.000524384 
  1816         1832.695352  1826.636396 0.000550661 
  1793         1724.849307  1718.377198 0.000557724 
  1708         1626.004766  1619.040822 0.00058548 
  1568         1541.511704  1533.948884 0.000637755 
  1498         1471.867927  1463.558963 0.000667557 
  1454         1415.551072  1406.294245 0.000687758 
  1404         1370.443443  1359.962936 0.000712251 
  1433         1334.487     1322.412558 0.000697837 
  1279         1306.01392   1291.851751 0.000781861 
  1312         1283.697326  1266.798539 0.000762195 
  1282         1266.580502  1246.10992  0.000780031 
  1223         1253.98948   1228.893749 0.000817661 
  1234         1245.471105  1214.444843 0.000810373 
  1271         1240.762402  1202.23174  0.000786782 
  1191         1239.722645  1191.826464 0.000839631 
  1289         1242.300547  1182.902415 0.000775795 
  1194         1248.483181  1175.200767 0.000837521 
  1221         1258.264854  1168.509625 0.000819001 
  1208         1271.593147  1162.666508 0.000827815 
  1200         1288.35544   1157.533802 0.000833333 
  1199         1308.324436  1153.003996 0.000834028 
  1191         1331.139063  1148.988731 0.000839631 
  1299         1356.316235  1145.411941 0.000769823 
  1282         1383.194545  1142.214544 0.000780031 
  1262         1410.994576  1139.343682 0.000792393 
  1321         1438.780071  1136.757474 0.000757002 
  1391         1465.483419  1134.396227 0.000718907 
  1447         1490.072355  1132.276404 0.000691085 
  1450         1511.427422  1130.348879 0.000689655 
  1519         1528.597692  1128.590237 0.000658328 
  1574         1540.847762  1126.981821 0.000635324 
  1568         1547.773431  1125.50747  0.000637755 
  1514         1549.328612  1124.15197  0.000660502 
  1540         1545.763477  1122.9036   0.000649351 
  1515         1537.526527  1121.750754 0.000660066 
  1486         1525.158072  1120.684227 0.000672948 
  1503         1509.20984   1119.695911 0.000665336 
  1435         1490.185851  1118.777829 0.000696864 
  1394         1468.575856  1117.92396  0.00071736 
  1460         1444.840409  1117.12803  0.000684932 
  1451         1419.48742   1116.385116 0.00068918 
  1402         1393.074519  1115.69082  0.000713267 
  1389         1366.172961  1115.040636 0.000719942 
  1377         1339.384472  1114.43125  0.000726216 
  1290         1313.236805  1113.859026 0.000775194 
  1301         1288.204086  1113.321152 0.00076864 
  1337         1264.665208  1112.815103 0.000747943 
  1250         1242.881807  1112.338164 0.0008    
  1216         1223.049244  1111.88841  0.000822368 
  1254         1205.255239  1111.463615 0.000797448 
  1192         1189.530626  1111.062085 0.000838926 
  1221         1175.839925  1110.682299 0.000819001 
  1186         1164.08297   1110.322536 0.00084317 
  1150         1154.1325    1109.98163  0.000869565 
  1130         1145.818712  1109.658148 0.000884956 
  1129         1138.962196  1109.351033 0.00088574 
  1109         1133.374293  1109.059327 0.000901713 
  1095         1128.863675  1108.781896 0.000913242 
  1096         1125.254462  1108.518001 0.000912409 
  1135         1122.381306  1108.266697 0.000881057 
  1107         1120.100763  1108.027288 0.000903342 
  1120         1118.289145  1107.799161 0.000892857 
  1086         1116.841709  1107.581536 0.00092081 
  1114         1115.67492   1107.373937 0.000897666 
  1100         1114.721085  1107.175714 0.000909091 
  1120         1113.928467  1106.986401 0.000892857 
  1133         1113.257619  1106.805595 0.000882613 
  1091         1112.678534  1106.632742 0.00091659 
  1178         1112.169776  1106.46753  0.000848896 
  1102         1111.715252  1106.309505 0.000907441 
  1077         1111.30371   1106.15834  0.000928505 
  1085         1110.927093  1106.01377  0.000921659 
  1138         1110.579288  1105.875395 0.000878735 
  1087         1110.256208  1105.743004 0.000919963 
  1111         1109.954505  1105.616271 0.00090009 
  1094         1109.671849  1105.49497  0.000914077 
  1095         1109.406449  1105.378922 0.000913242 
  1091         1109.156618  1105.26783  0.00091659 
  1131         1108.921233  1105.161553 0.000884173 
  1090         1108.699097  1105.059858 0.000917431 
  1099         1108.489325  1104.962579 0.000909918 
  1079         1108.291168  1104.869602 0.000926784 
  1053         1108.103756  1104.780702 0.000949668 
  1059         1107.92653   1104.695786 0.000944287 
  1101         1107.758796  1104.614684 0.000908265 
  1096         1107.600051  1104.537286 0.000912409 
  1097         1107.449832  1104.463494 0.000911577 
  1095         1107.307607  1104.393165 0.000913242 
  1089         1107.173026  1104.326226 0.000918274 
  1080         1107.04564   1104.26256  0.000925926 
  1066         1106.92513   1104.202087 0.000938086 
  1080         1106.8112    1104.14474  0.000925926 
  1117         1106.703495  1104.09042  0.000895255 
  1121         1106.601795  1104.039075 0.000892061 
  1096         1106.5058    1103.990627 0.000912409 
  1099         1106.415291  1103.945011 0.000909918 
  1086         1106.330108  1103.902213 0.00092081 
  1080         1106.249982  1103.862136 0.000925926 
  1112         1106.174779  1103.824757 0.000899281 
  1125         1106.1043    1103.790028 0.000888889 
  1063         1106.038398  1103.757902 0.000940734 
  1019         1105.976983  1103.728387 0.000981354 
  1056         1105.919862  1103.701411 0.00094697 
  1085         1105.866956  1103.676965 0.000921659 
  1089         1105.818136  1103.655029 0.000918274 
  1065         1105.773302  1103.635568 0.000938967 
  1096         1105.732414  1103.618612 0.000912409 
  1079         1105.695338  1103.604109 0.000926784 
  1093         1105.662026  1103.592061 0.000914913 
  1061         1105.632407  1103.582474 0.000942507 
  1044         1105.606414  1103.575325 0.000957854 
  1110         1105.584047  1103.570664 0.000900901 
  1119         1105.565212  1103.568455 0.000893655 
  1154         1105.549892  1103.568715 0.000866551 
  1137         1105.538055  1103.57147  0.000879507 
  1062         1105.529681  1103.576729 0.00094162 
  1082         1105.524748  1103.584505 0.000924214 
  1098         1105.523253  1103.594838 0.000910747 
  1061         1105.52518   1103.607734 0.000942507 
  1149         1105.530539  1103.623248 0.000870322 
  1094         1105.539311  1103.641379 0.000914077 
  1122         1105.551563  1103.662218 0.000891266 
  1068         1105.567259  1103.685765 0.00093633 
  1109         1105.58643   1103.712063 0.000901713 
  1073         1105.60912   1103.741188 0.000931966 
  1098         1105.635333  1103.773157 0.000910747 
  1103         1105.665161  1103.808083 0.000906618 
  1101         1105.698607  1103.845987 0.000908265 
  1058         1105.735714  1103.886926 0.00094518 
  1117         1105.776567  1103.931009 0.000895255 
  1129         1105.821218  1103.978293 0.00088574 
  1108         1105.869712  1104.02884  0.000902527 
  1099         1105.922164  1104.082776 0.000909918 
  1120         1105.978616  1104.140153 0.000892857 
  1125         1106.03919   1104.201112 0.000888889 
  1087         1106.103939  1104.265707 0.000919963 
  1060         1106.173031  1104.334116 0.000943396 
  1050         1106.246528  1104.406412 0.000952381 
  1089         1106.324532  1104.482701 0.000918274 
  1154         1106.407217  1104.563171 0.000866551 
  1162         1106.49466   1104.647896 0.000860585 
  1104         1106.587085  1104.737109 0.000905797 
  1085         1106.68459   1104.830916 0.000921659 
  1090         1106.787319  1104.929457 0.000917431 
  1105         1106.895505  1105.032979 0.000904977 
  1109         1107.00931   1105.141638 0.000901713 
  1097         1107.128885  1105.255593 0.000911577 
  1091         1107.254521  1105.375134 0.00091659 
  1105         1107.386362  1105.500404 0.000904977 
  1085         1107.524724  1105.631728 0.000921659 
  1051         1107.669775  1105.769266 0.000951475 
  1055         1107.821887  1105.913392 0.000947867 
  1060         1107.981283  1106.064332 0.000943396 
  1076         1108.14823   1106.222343 0.000929368 
  1095         1108.323145  1106.387852 0.000913242 
  1098         1108.506269  1106.561087 0.000910747 
  1078         1108.69809   1106.742542 0.000927644 
  1075         1108.898937  1106.932534 0.000930233 
  1086         1109.109167  1107.131419 0.00092081 
  1055         1109.329346  1107.339766 0.000947867 
  1086         1109.559901  1107.557985 0.00092081 
  1108         1109.801255  1107.786504 0.000902527 
  1122         1110.0541    1108.026004 0.000891266 
  1088         1110.318869  1108.27691  0.000919118 
  1137         1110.596331  1108.539992 0.000879507 
  1128         1110.886993  1108.81574  0.000886525 
  1038         1111.191742  1109.10504  0.000963391 
  1077         1111.511253  1109.408554 0.000928505 
  1139         1111.846252  1109.726998 0.000877963 
  1069         1112.197806  1110.061437 0.000935454 
  1051         1112.566665  1110.4126   0.000951475 
  1079         1112.954063  1110.781719 0.000926784 
  1122         1113.36099   1111.169767 0.000891266 
  1145         1113.788511  1111.577795 0.000873362 
  1078         1114.238135  1112.007309 0.000927644 
  1074         1114.71114   1112.459561 0.000931099 
  1119         1115.208864  1112.93588  0.000893655 
  1101         1115.733214  1113.438162 0.000908265 
  1118         1116.285644  1113.967834 0.000894454 
  1085         1116.868367  1114.527107 0.000921659 
  1143         1117.483316  1115.117881 0.000874891 
  1134         1118.132535  1115.742195 0.000881834 
  1151         1118.818873  1116.402865 0.00086881 
  1075         1119.544602  1117.102148 0.000930233 
  1094         1120.313072  1117.843383 0.000914077 
  1087         1121.127053  1118.629299 0.000919963 
  1103         1121.990528  1119.463873 0.000906618 
  1143         1122.907141  1120.350706 0.000874891 
  1078         1123.880856  1121.293744 0.000927644 
  1141         1124.916903  1122.298201 0.000876424 
  1100         1126.019874  1123.36862  0.000909091 
  1077         1127.17661   1124.511329 0.000928505 
  1087         1128.432171  1125.732314 0.000919963 
  1100         1129.773698  1127.038209 0.000909091 
  1108         1131.209755  1128.437561 0.000902527 
  1124         1132.748713  1129.938684 0.00088968 
  1080         1134.399837  1131.550827 0.000925926 
  1106         1136.174995  1133.285793 0.000904159 
  1123         1138.075676  1135.154789 0.000890472 
  1101         1140.136267  1137.172655 0.000908265 
  1115         1142.362057  1139.354375 0.000896861 
  1103         1144.769906  1141.716784 0.000906618 
  1127         1147.381169  1144.28116  0.000887311 
  1167         1150.217016  1147.068628 0.000856898 
  1139         1153.30489   1150.106591 0.000877963 
  1113         1156.672652  1153.422818 0.000898473 
  1158         1160.356107  1157.053066 0.000863558 
  1135         1164.393339  1161.035365 0.000881057 
  1138         1168.828094  1165.413361 0.000878735 
  1161         1173.714985  1170.241622 0.000861326 
  1142         1179.113342  1175.579366 0.000875657 
  1128         1185.091833  1181.495205 0.000886525 
  1136         1191.736155  1188.074728 0.000880282 
  1157         1199.138923  1195.410459 0.000864304 
  1121         1207.417447  1203.619633 0.000892061 
  1167         1216.702968  1212.833345 0.000856898 
  1194         1227.14916   1223.205201 0.000837521 
  1200         1238.947026  1234.926042 0.000833333 
  1217         1252.30768   1248.206877 0.000821693 
  1238         1267.495112  1263.311588 0.000807754 
  1228         1284.806156  1280.53682  0.000814332 
  1257         1304.583452  1300.225088 0.000795545 
  1312         1327.238417  1322.787672 0.000762195 
  1368         1353.207141  1348.660442 0.000730994 
  1349         1382.991607  1378.345255 0.00074129 
  1424         1417.082621  1412.332665 0.000702247 
  1528         1455.921377  1451.063714 0.00065445 
  1574         1499.840954  1494.871221 0.000635324 
  1618         1548.825102  1543.738708 0.000618047 
  1618         1602.374637  1597.166784 0.000618047 
  1750         1659.107052  1653.772603 0.000571429 
  1726         1716.478619  1711.012191 0.000579374 
  1798         1770.653845  1765.04976  0.000556174 
  1787         1816.576901  1810.829096 0.000559597 
  1836         1848.855856  1842.957985 0.000544662 
  1850         1862.988798  1856.934046 0.000540541 
  1817         1856.834427  1850.61561  0.000550358 
  1825         1831.379203  1824.988736 0.000547945 
  1718         1790.361826  1783.791553 0.000582072 
  1730         1738.996094  1732.237435 0.000578035 
  1726         1682.596635  1675.640347 0.000579374 
  1585         1625.545967  1618.382249 0.000630915 
  1568         1570.846911  1563.465365 0.000637755 
  1547         1520.311248  1512.700638 0.000646412 
  1489         1474.723133  1466.871576 0.000671592 
  1477         1434.263878  1426.158506 0.000677048 
  1478         1398.726851  1390.353939 0.00067659 
  1370         1367.679629  1359.024524 0.000729927 
  1318         1340.653074  1331.699862 0.000758725 
  1342         1317.137103  1307.868829 0.000745156 
  1339         1296.67578   1287.073981 0.000746826 
  1255         1278.855996  1268.900828 0.000796813 
  1278         1263.30048   1252.970583 0.000782473 
  1252         1249.702357  1238.974348 0.000798722 
  1198         1237.78287   1226.631559 0.000834725 
  1221         1227.316891  1215.714531 0.000819001 
  1241         1218.112561  1206.028851 0.000805802 
  1175         1210.000342  1197.401987 0.000851064 
  1178         1202.847619  1189.697235 0.000848896 
  1171         1196.534038  1182.789847 0.000853971 
  1159         1190.96587   1176.579737 0.000862813 
  1172         1186.065032  1170.981078 0.000853242 
  1189         1181.764014  1165.915932 0.000841043 
  1193         1178.016789  1161.323226 0.000838223 
  1225         1174.785395  1157.145201 0.000816327 
  1193         1172.052541  1153.335706 0.000838223 
  1197         1169.817295  1149.854535 0.000835422 
  1227         1168.096351  1146.663961 0.000814996 
  1217         1166.936768  1143.734747 0.000821693 
  1160         1166.411156  1141.038047 0.000862069 
  1168         1166.634997  1138.550919 0.000856164 
  1232         1167.768016  1136.253105 0.000811688 
  1210         1170.022211  1134.124873 0.000826446 
  1233         1173.67988   1132.151181 0.00081103 
  1197         1179.086896  1130.316522 0.000835422 
  1234         1186.676182  1128.609135 0.000810373 
  1303         1196.951934  1127.016692 0.00076746 
  1324         1210.492212  1125.529549 0.000755287 
  1289         1227.952442  1124.139    0.000775795 
  1323         1250.011584  1122.83614  0.000755858 
  1299         1277.389041  1121.614064 0.000769823 
  1383         1310.760055  1120.466529 0.000723066 
  1396         1350.718975  1119.386958 0.000716332 
  1466         1397.768904  1118.370614 0.000682128 
  1490         1452.173145  1117.412088 0.000671141 
  1521         1514.009989  1116.507526 0.000657462 
  1598         1583.011961  1115.652437 0.000625782 
  1579         1658.563715  1114.843458 0.000633312 
  1690         1739.748061  1114.077488 0.000591716 
  1769         1825.176271  1113.351085 0.000565291 
  1845         1913.181418  1112.661708 0.000542005 
  2015         2001.672581  1112.00701  0.000496278 
  2087         2088.254636  1111.384319 0.000479157 
  2166         2170.384308  1110.79185  0.000461681 
  2253         2245.321824  1110.22732  0.000443853 
  2350         2310.503292  1109.689247 0.000425532 
  2351         2363.62273   1109.175678 0.000425351 
  2323         2402.967286  1108.685231 0.000430478 
  2506         2427.627915  1108.216616 0.000399042 
  2641         2437.482098  1107.768277 0.000378644 
  2586         2433.147998  1107.339123 0.000386698 
  2489         2415.734504  1106.928145 0.000401768 
  2406         2386.619836  1106.534079 0.000415628 
  2445         2347.20755   1106.156166 0.000408998 
  2383         2298.86764   1105.793302 0.000419639 
  2330         2242.813235  1105.444847 0.000429185 
  2313         2180.224355  1105.109825 0.000432339 
  2297         2112.291951  1104.787609 0.00043535 
  2233         2040.228094  1104.477593 0.000447828 
  2093         1965.436385  1104.178979 0.000477783 
  2073         1889.319827  1103.891329 0.000482393 
  1982         1813.346386  1103.613933 0.000504541 
  1856         1738.892292  1103.346345 0.000538793 
  1807         1667.102486  1103.088144 0.000553403 
  1766         1598.996201  1102.838734 0.000566251 
  1658         1535.291522  1102.597811 0.000603136 
  1605         1476.550362  1102.364849 0.000623053 
  1527         1423.129581  1102.139524 0.000654879 
  1466         1375.159901  1101.921537 0.000682128 
  1454         1332.669522  1101.710433 0.000687758 
  1434         1295.496443  1101.506004 0.00069735 
  1391         1263.39975   1101.307844 0.000718907 
  1338         1236.041565  1101.11572  0.000747384 
  1342         1212.995035  1100.929413 0.000745156 
  1329         1193.820703  1100.748573 0.000752445 
  1254         1178.037054  1100.573051 0.000797448 
  1181         1165.181767  1100.402535 0.00084674 
  1195         1154.809049  1100.23685  0.00083682 
  1199         1146.49741   1100.075837 0.000834028 
  1191         1139.877514  1099.919219 0.000839631 
  1213         1134.617955  1099.766892 0.000824402 
  1192         1130.440601  1099.618607 0.000838926 
  1200         1127.112544  1099.474237 0.000833333 
  1202         1124.441105  1099.333659 0.000831947 
  1217         1122.275107  1099.196656 0.000821693 
  1203         1120.493672  1099.063153 0.000831255 
  1173         1119.005062  1098.932951 0.000852515 
  1155         1117.739631  1098.805953 0.000865801 
  1123         1116.644388  1098.682067 0.000890472 
  1114         1115.681211  1098.561117 0.000897666 
  1119         1114.821332  1098.443051 0.000893655 
  1154         1114.044301  1098.327706 0.000866551 
  1174         1113.335296  1098.215009 0.000851789 
  1146         1112.682945  1098.104891 0.0008726 
  1129         1112.079385  1097.997206 0.00088574 
  1105         1111.51821   1097.891918 0.000904977 
  1106         1110.994781  1097.788894 0.000904159 
  1085         1110.505516  1097.688078 0.000921659 
  1170         1110.047128  1097.589415 0.000854701 
  1069         1109.617289  1097.492788 0.000935454 
  1141         1109.213661  1097.398169 0.000876424 
  1106         1108.834424  1097.305449 0.000904159 
  1115         1108.478071  1097.214584 0.000896861 
  1138         1108.142947  1097.125533 0.000878735 
  1143         1107.827892  1097.038195 0.000874891 
  1119         1107.5316    1096.952555 0.000893655 
  1105         1107.253028  1096.868518 0.000904977 
  1142         1106.991332  1096.786052 0.000875657 
  1125         1106.745485  1096.705124 0.000888889 
  1096         1106.514816  1096.625651 0.000912409 
  1095         1106.29851   1096.54762  0.000913242 
  1073         1106.095922  1096.470954 0.000931966 
  1088         1105.906577  1096.395627 0.000919118 
  1090         1105.729811  1096.321612 0.000917431 
  1043         1105.565245  1096.24884  0.000958773 
  1049         1105.412366  1096.177289 0.000953289 
  1111         1105.270822  1096.106934 0.00090009 
  1084         1105.140334  1096.037713 0.000922509 
  1071         1105.020503  1095.96962  0.000933707 
  1093         1104.911151  1095.902595 0.000914913 
  1064         1104.811981  1095.836619 0.00093985 
  1072         1104.722819  1095.771675 0.000932836 
  1096         1104.643572  1095.707709 0.000912409 
  1073         1104.574017  1095.644717 0.000931966 
  1101         1104.514141  1095.582648 0.000908265 
  1107         1104.46383   1095.521499 0.000903342 
  1108         1104.423014  1095.461221 0.000902527 
  1132         1104.391798  1095.401802 0.000883392 
  1085         1104.3701    1095.34323  0.000921659 
  1076         1104.35805   1095.285458 0.000929368 
  1089         1104.355695  1095.228487 0.000918274 
  1125         1104.363102  1095.172275 0.000888889 
  1091         1104.38054   1095.116811 0.00091659 
  1062         1104.408071  1095.062086 0.00094162 
  1131         1104.445995  1095.00806  0.000884173 
  1147         1104.494523  1094.954735 0.00087184 
  1119         1104.553903  1094.902072 0.000893655 
  1074         1104.624531  1094.850065 0.000931099 
  1100         1104.706711  1094.798706 0.000909091 
  1083         1104.800925  1094.74796  0.000923361 
  1067         1104.907597  1094.697828 0.000937207 
  1114         1105.02716   1094.64828  0.000897666 
  1082         1105.16033   1094.599308 0.000924214 
  1043         1105.307589  1094.550906 0.000958773 
  1089         1105.46973   1094.503045 0.000918274 
  1100         1105.647475  1094.455725 0.000909091 
  1090         1105.841558  1094.40892  0.000917431 
  1077         1106.053083  1094.362624 0.000928505 
  1070         1106.282883  1094.316832 0.000934579 
  1078         1106.532203  1094.271518 0.000927644 
  1091         1106.802223  1094.226683 0.00091659 
  1067         1107.094176  1094.182305 0.000937207 
  1070         1107.409748  1094.138377 0.000934579 
  1126         1107.750408  1094.094897 0.000888099 
  1105         1108.118159  1094.051841 0.000904977 
  1099         1108.515022  1094.009211 0.000909918 
  1102         1108.94316   1093.966987 0.000907441 
  1139         1109.405557  1093.925164 0.000877963 
  1128         1109.905068  1093.88374  0.000886525 
  1104         1110.445654  1093.842693 0.000905797 
  1100         1111.03181   1093.802027 0.000909091 
  1072         1111.669006  1093.761721 0.000932836 
  1001         1112.365017  1093.721775 0.000999001 
  1092         1113.129124  1093.682184 0.000915751 
  1068         1113.974707  1093.642932 0.00093633 
  1099         1114.919444  1093.604019 0.000909918 
  1061         1115.987387  1093.565431 0.000942507 
  1150         1117.212859  1093.527162 0.000869565 
  1188         1118.635885  1093.489214 0.000841751 
  1141         1120.331763  1093.451568 0.000876424 
  1124         1122.380504  1093.414228 0.00088968 
  1112         1124.896156  1093.377178 0.000899281 
  1147         1128.03184   1093.340416 0.00087184 
  1185         1131.982736  1093.303942 0.000843882 
  1177         1137.002305  1093.267741 0.000849618 
  1186         1143.401962  1093.231814 0.00084317 
  1187         1151.57114   1093.196148 0.00084246 
  1145         1161.975516  1093.160743 0.000873362 
  1145         1175.15251   1093.125597 0.000873362 
  1219         1191.7295    1093.090696 0.000820345 
  1239         1212.391505  1093.056044 0.000807103 
  1226         1237.867849  1093.021627 0.000815661 
  1210         1268.933731  1092.987446 0.000826446 
  1236         1306.319089  1092.953499 0.000809061 
  1276         1350.73366   1092.919774 0.000783699 
  1260         1402.748795  1092.886274 0.000793651 
  1250         1462.758217  1092.852988 0.0008    
  1322         1530.983919  1092.819914 0.00075643 
  1349         1607.296039  1092.787053 0.00074129 
  1357         1691.314011  1092.754393 0.00073692 
  1438         1782.239497  1092.721938 0.00069541 
  1468         1878.874989  1092.689676 0.000681199 
  1536         1979.719783  1092.657608 0.000651042 
  1622         2082.787148  1092.625733 0.000616523 
  1772         2185.83908   1092.594041 0.000564334 
  1851         2286.28234   1092.562534 0.000540249 
  2010         2381.296157  1092.531204 0.000497512 
  2268         2468.065898  1092.50005  0.000440917 
  2423         2543.790918  1092.469073 0.000412712 
  2533         2606.069045  1092.438261 0.000394789 
  2714         2653.08673   1092.40762  0.00036846 
  2848         2683.793627  1092.377139 0.000351124 
  3001         2698.022975  1092.346819 0.000333222 
  3012         2696.353109  1092.31666  0.000332005 
  2907         2679.872396  1092.286652 0.000343997 
  2865         2650.051927  1092.2568   0.00034904 
  2746         2608.419864  1092.227095 0.000364166 
  2711         2556.425472  1092.197536 0.000368868 
  2634         2495.463833  1092.168125 0.000379651 
  2516         2426.734033  1092.138853 0.000397456 
  2507         2351.485819  1092.109723 0.000398883 
  2311         2270.992868  1092.080728 0.000432713 
  2278         2186.569041  1092.051867 0.000438982 
  2247         2099.728346  1092.023141 0.000445038 
  2120         2011.971355  1091.994543 0.000471698 
  2052         1924.809503  1091.966075 0.000487329 
  1971         1839.66196   1091.937731 0.000507357 
  1880         1757.68729   1091.90951  0.000531915 
  1782         1679.911794  1091.881414 0.000561167 
  1657         1607.097444  1091.853434 0.0006035 
  1671         1539.783587  1091.825575 0.000598444 
  1560         1478.352597  1091.797829 0.000641026 
  1382         1422.94039   1091.770196 0.000723589 
  1331         1373.576694  1091.742678 0.000751315 
  1270         1330.129695  1091.715268 0.000787402 
  1238         1292.329317  1091.687969 0.000807754 
  1239         1259.84318   1091.660774 0.000807103 
  1243         1232.229109  1091.633683 0.000804505 
  1166         1209.026301  1091.606699 0.000857633 
  1183         1189.740665  1091.579813 0.000845309 
  1190         1173.863938  1091.55303  0.000840336 
  1196         1160.918915  1091.526343 0.00083612 
  1149         1150.441293  1091.499753 0.000870322 
  1139         1142.017498  1091.47326  0.000877963 
  1124         1135.275655  1091.446859 0.00088968 
  1120         1129.888716  1091.420553 0.000892857 
  1160         1125.58367   1091.394335 0.000862069 
  1132         1122.128177  1091.368207 0.000883392 
  1106         1119.335958  1091.342169 0.000904159 
  1108         1117.056436  1091.316217 0.000902527 
  1135         1115.170189  1091.290351 0.000881057 
  1148         1113.586123  1091.264568 0.00087108 
  1133         1112.233007  1091.238868 0.000882613 
  1115         1111.058369  1091.213252 0.000896861 
  1078         1110.022477  1091.187714 0.000927644 
  1094         1109.095762  1091.162258 0.000914077 
  1116         1108.256975  1091.136878 0.000896057 
  1094         1107.489677  1091.111575 0.000914077 
  1093         1106.782371  1091.086349 0.000914913 
  1082         1106.126109  1091.061197 0.000924214 
  1092         1105.514069  1091.036118 0.000915751 
  1088         1104.941292  1091.011114 0.000919118 
  1090         1104.403317  1090.986179 0.000917431 
  1105         1103.89701   1090.961316 0.000904977 
  1107         1103.419478  1090.936522 0.000903342 
  1092         1102.968265  1090.911796 0.000915751 
  1101         1102.541473  1090.887139 0.000908265 
  1101         1102.137027  1090.862547 0.000908265 
  1094         1101.75346   1090.838023 0.000914077 
  1050         1101.389234  1090.813562 0.000952381 
  1094         1101.04297   1090.789164 0.000914077 
  1102         1100.713588  1090.764831 0.000907441 
  1079         1100.399794  1090.740558 0.000926784 
  1129         1100.100702  1090.716349 0.00088574 
  1145         1099.815327  1090.692197 0.000873362 
  1130         1099.542776  1090.668107 0.000884956 
  1169         1099.282362  1090.644075 0.000855432 
  1099         1099.033211  1090.6201   0.000909918 
  1091         1098.794752  1090.596184 0.00091659 
  1162         1098.566318  1090.572323 0.000860585 
  1081         1098.347305  1090.548518 0.000925069 
  1109         1098.137263  1090.524767 0.000901713 
  1111         1097.935579  1090.501071 0.00090009 
  1079         1097.741871  1090.477429 0.000926784 
  1003         1097.555678  1090.453838 0.000997009 
  1126         1097.376579  1090.430301 0.000888099 
  1038         1097.204268  1090.406813 0.000963391 
  1107         1097.038305  1090.383377 0.000903342 
  1088         1096.878433  1090.359991 0.000919118 
  1087         1096.724319  1090.336654 0.000919963 
  1102         1096.575665  1090.313366 0.000907441 
  1036         1096.43226   1090.290126 0.000965251 
  1129         1096.293779  1090.266932 0.00088574 
  1089         1096.160046  1090.243787 0.000918274 
  1099         1096.030818  1090.220687 0.000909918 
  1073         1095.905876  1090.197633 0.000931966 
  1094         1095.785075  1090.174624 0.000914077 
  1086         1095.668169  1090.151659 0.00092081 
  1068         1095.555035  1090.128739 0.00093633 
  1045         1095.445493  1090.105861 0.000956938 
  1054         1095.33938   1090.083027 0.000948767 
  1062         1095.236596  1090.060234 0.00094162 
  1096         1095.13695   1090.037483 0.000912409 
  1102         1095.040356  1090.014775 0.000907441 
  1104         1094.94668   1089.992106 0.000905797 
  1090         1094.855797  1089.969478 0.000917431 
  1081         1094.767637  1089.946889 0.000925069 
  1046         1094.682053  1089.924339 0.000956023 
  1076         1094.598983  1089.90183  0.000929368 
  1102         1094.518325  1089.879357 0.000907441 
  1116         1094.439983  1089.856923 0.000896057 
  1110         1094.36391   1089.834526 0.000900901 
  1088         1094.289988  1089.812165 0.000919118 
  1073         1094.218174  1089.789842 0.000931966 
  1058         1094.14839   1089.767554 0.00094518 
  1076         1094.080563  1089.745303 0.000929368 
  1100         1094.014659  1089.723086 0.000909091 
  1088         1093.950585  1089.700903 0.000919118 
  1059         1093.888312  1089.678756 0.000944287 
  1082         1093.827779  1089.656642 0.000924214 
  1099         1093.768929  1089.634562 0.000909918 
  1117         1093.71174   1089.612515 0.000895255 
  1102         1093.656138  1089.590501 0.000907441 
  1071         1093.602104  1089.56852  0.000933707 
  1069         1093.549591  1089.54657  0.000935454 
  1030         1093.498552  1089.524652 0.000970874 
  1059         1093.448979  1089.502765 0.000944287 
  1083         1093.400809  1089.480909 0.000923361 
  1044         1093.35403   1089.459084 0.000957854 
  1037         1093.308608  1089.437289 0.00096432 
  1091         1093.264506  1089.415524 0.00091659 
  1079         1093.221722  1089.393789 0.000926784 
  1106         1093.180205  1089.372082 0.000904159 
  1058         1093.13995   1089.350406 0.00094518 
  1092         1093.100933  1089.328756 0.000915751 
  1063         1093.063122  1089.307136 0.000940734 
  1099         1093.026524  1089.285544 0.000909918 
  1096         1092.991097  1089.263979 0.000912409 
  1079         1092.956839  1089.242442 0.000926784 
  1093         1092.923735  1089.220931 0.000914913 
  1078         1092.891762  1089.199448 0.000927644 
  1080         1092.86093   1089.17799  0.000925926 
  1011         1092.831205  1089.156558 0.00098912 
  1094         1092.80259   1089.135154 0.000914077 
  1082         1092.775079  1089.113774 0.000924214 
  1069         1092.74865   1089.09242  0.000935454 
  1088         1092.723323  1089.07109  0.000919118 
  1098         1092.699068  1089.049786 0.000910747 
  1098         1092.675895  1089.028506 0.000910747 
  1109         1092.6538    1089.00725  0.000901713 
  1102         1092.632772  1088.986019 0.000907441 
  1065         1092.612831  1088.96481  0.000938967 
  1059         1092.593956  1088.943626 0.000944287 
  1077         1092.576161  1088.922465 0.000928505 
  1125         1092.559448  1088.901326 0.000888889 
  1045         1092.543811  1088.880211 0.000956938 
  1055         1092.529275  1088.859118 0.000947867 
  1074         1092.515827  1088.838047 0.000931099 
  1079         1092.503482  1088.816999 0.000926784 
  1092         1092.492252  1088.795972 0.000915751 
  1075         1092.482133  1088.774967 0.000930233 
  1065         1092.473159  1088.753983 0.000938967 
  1049         1092.46532   1088.73302  0.000953289 
  1038         1092.458638  1088.712078 0.000963391 
  1102         1092.453132  1088.691157 0.000907441 
  1116         1092.448802  1088.670257 0.000896057 
  1074         1092.445689  1088.649377 0.000931099 
  1098         1092.443792  1088.628517 0.000910747 
  1095         1092.443135  1088.607677 0.000913242 
  1078         1092.443748  1088.586856 0.000927644 
  1084         1092.445634  1088.566056 0.000922509 
  1080         1092.448846  1088.545274 0.000925926 
  1061         1092.453387  1088.524511 0.000942507 
  1055         1092.459288  1088.503768 0.000947867 
  1067         1092.46659   1088.483043 0.000937207 
  1082         1092.475302  1088.462337 0.000924214 
  1067         1092.485487  1088.441649 0.000937207 
  1043         1092.497156  1088.420979 0.000958773 
  1062         1092.51035   1088.400328 0.00094162 
  1076         1092.52512   1088.379694 0.000929368 
  1053         1092.541483  1088.359079 0.000949668 
  1055         1092.559516  1088.33848  0.000947867 
  1078         1092.579239  1088.317898 0.000927644 
  1115         1092.600705  1088.297335 0.000896861 
  1099         1092.623979  1088.276787 0.000909918 
  1057         1092.649086  1088.256258 0.000946074 
  1037         1092.676123  1088.235744 0.00096432 
  1079         1092.70512   1088.215247 0.000926784 
  1038         1092.736143  1088.194766 0.000963391 
  1087         1092.769279  1088.174302 0.000919963 
  1087         1092.804564  1088.153854 0.000919963 
  1040         1092.842117  1088.133421 0.000961538 
  1121         1092.881983  1088.113004 0.000892061 
  1113         1092.924248  1088.092604 0.000898473 
  1127         1092.969022  1088.072218 0.000887311 
  1111         1093.016359  1088.051848 0.00090009 
  1127         1093.066405  1088.031493 0.000887311 
  1049         1093.119229  1088.011152 0.000953289 
  1086         1093.17494   1087.990828 0.00092081 
  1086         1093.23368   1087.970517 0.00092081 
  1040         1093.295527  1087.950222 0.000961538 
  1043         1093.360665  1087.92994  0.000958773 
  1070         1093.429193  1087.909673 0.000934579 
  1058         1093.501253  1087.889421 0.00094518 
  1066         1093.577031  1087.869182 0.000938086 
  1118         1093.656637  1087.848958 0.000894454 
  1106         1093.740309  1087.828747 0.000904159 
  1090         1093.828185  1087.80855  0.000917431 
  1038         1093.920455  1087.788367 0.000963391 
  1102         1094.017365  1087.768197 0.000907441 
  1091         1094.119071  1087.748041 0.00091659 
  1083         1094.225884  1087.727897 0.000923361 
  1032         1094.338001  1087.707767 0.000968992 
  1065         1094.455678  1087.68765  0.000938967 
  1060         1094.579246  1087.667546 0.000943396 
  1061         1094.708932  1087.647454 0.000942507 
  1091         1094.845146  1087.627376 0.00091659 
  1096         1094.988172  1087.607309 0.000912409 
  1097         1095.138362  1087.587256 0.000911577 
  1104         1095.296172  1087.567214 0.000905797 
  1096         1095.461928  1087.547185 0.000912409 
  1115         1095.636192  1087.527168 0.000896861 
  1050         1095.819372  1087.507163 0.000952381 
  1043         1096.011969  1087.48717  0.000958773 
  1078         1096.21462   1087.467189 0.000927644 
  1074         1096.427804  1087.44722  0.000931099 
  1080         1096.652306  1087.427262 0.000925926 
  1064         1096.888733  1087.407315 0.00093985 
  1076         1097.137807  1087.38738  0.000929368 
  1084         1097.400441  1087.367456 0.000922509 
  1057         1097.677361  1087.347544 0.000946074 
  1072         1097.969694  1087.327643 0.000932836 
  1059         1098.278357  1087.307753 0.000944287 
  1027         1098.604433  1087.287874 0.00097371 
  1019         1098.949273  1087.268005 0.000981354 
  1070         1099.314022  1087.248148 0.000934579 
  1094         1099.700365  1087.228301 0.000914077 
  1084         1100.109771  1087.208464 0.000922509 
  1091         1100.54398   1087.188639 0.00091659 
  1089         1101.005177  1087.168823 0.000918274 
  1093         1101.49538   1087.149018 0.000914913 
  1086         1102.017506  1087.129223 0.00092081 
  1093         1102.574436  1087.109438 0.000914913 
  1071         1103.169767  1087.089664 0.000933707 
  1082         1103.808247  1087.069899 0.000924214 
  1102         1104.495163  1087.050145 0.000907441 
  1079         1105.238156  1087.0304   0.000926784 
  1085         1106.046411  1087.010665 0.000921659 
  1085         1106.932301  1086.99094  0.000921659 
  1115         1107.912943  1086.971224 0.000896861 
  1085         1109.010303  1086.951518 0.000921659 
  1175         1110.255345  1086.931821 0.000851064 
  1124         1111.68842   1086.912134 0.00088968 
  1102         1113.363567  1086.892456 0.000907441 
  1102         1115.353577  1086.872787 0.000907441 
  1144         1117.751675  1086.853127 0.000874126 
  1198         1120.681417  1086.833477 0.000834725 
  1183         1124.298188  1086.813835 0.000845309 
  1139         1128.797252  1086.794202 0.000877963 
  1143         1134.424225  1086.774578 0.000874891 
  1177         1141.471937  1086.754964 0.000849618 
  1101         1150.298319  1086.735357 0.000908265 
  1187         1161.31607   1086.71576  0.00084246 
  1131         1174.996699  1086.696171 0.000884173 
  1211         1191.879839  1086.67659  0.000825764 
  1176         1212.536397  1086.657019 0.00085034 
  1247         1237.593073  1086.637455 0.000801925 
  1187         1267.673113  1086.6179   0.00084246 
  1192         1303.382936  1086.598353 0.000838926 
  1330         1345.313473  1086.578814 0.00075188 
  1272         1393.930305  1086.559284 0.000786164 
  1353         1449.628703  1086.539761 0.000739098 
  1382         1512.598083  1086.520247 0.000723589 
  1384         1582.820926  1086.50074  0.000722543 
  1497         1660.094551  1086.481242 0.000668003 
  1474         1743.868983  1086.461751 0.000678426 
  1495         1833.396889  1086.442268 0.000668896 
  1647         1927.558404  1086.422793 0.000607165 
  1729         2024.94529   1086.403326 0.000578369 
  1856         2123.930143  1086.383866 0.000538793 
  1881         2222.528327  1086.364414 0.000531632 
  1976         2318.646869  1086.344969 0.000506073 
  2071         2409.944993  1086.325531 0.000482859 
  2207         2494.05597   1086.306102 0.000453104 
  2372         2568.712235  1086.286679 0.000421585 
  2538         2631.821671  1086.267264 0.000394011 
  2559         2681.782929  1086.247856 0.000390778 
  2610         2717.497024  1086.228455 0.000383142 
  2714         2738.577283  1086.209061 0.00036846 
  2726         2745.211755  1086.189675 0.000366838 
  2710         2738.132859  1086.170295 0.000369004 
  2745         2718.404564  1086.150922 0.000364299 
  2677         2687.256479  1086.131557 0.000373552 
  2592         2646.003335  1086.112198 0.000385802 
  2575         2595.794603  1086.092846 0.00038835 
  2519         2537.776648  1086.073501 0.000396983 
  2496         2472.932623  1086.054162 0.000400641 
  2369         2402.248794  1086.03483  0.000422119 
  2314         2326.745242  1086.015505 0.000432152 
  2318         2247.431304  1085.996187 0.000431406 
  2261         2165.504581  1085.976875 0.000442282 
  2249         2082.137711  1085.957569 0.000444642 
  2136         1998.599218  1085.93827  0.000468165 
  1943         1916.074953  1085.918978 0.000514668 
  1925         1835.624777  1085.899691 0.000519481 
  1823         1758.223205  1085.880412 0.000548546 
  1755         1684.599229  1085.861138 0.000569801 
  1687         1615.395224  1085.84187  0.000592768 
  1581         1551.039394  1085.822609 0.000632511 
  1571         1491.827732  1085.803354 0.000636537 
  1517         1437.940531  1085.784105 0.000659196 
  1486         1389.379994  1085.764862 0.000672948 
  1419         1346.0936    1085.745625 0.000704722 
  1371         1307.889203  1085.726395 0.000729395 
  1375         1274.517131  1085.70717  0.000727273 
  1370         1245.668301  1085.687951 0.000729927 
  1281         1220.960392  1085.668737 0.00078064 
  1416         1200.01144   1085.64953  0.000706215 
  1322         1182.402691  1085.630329 0.00075643 
  1357         1167.729903  1085.611133 0.00073692 
  1305         1155.601582  1085.591943 0.000766284 
  1237         1145.63817   1085.572758 0.000808407 
  1198         1137.502443  1085.553579 0.000834725 
  1327         1130.8824    1085.534406 0.00075358 
  1318         1125.508033  1085.515238 0.000758725 
  1405         1121.146069  1085.496077 0.000711744 
  1345         1117.595023  1085.47692  0.000743494 
  1318         1114.690909  1085.457769 0.000758725 
  1306         1112.29659   1085.438623 0.000765697 
  1228         1110.302602  1085.419482 0.000814332 
  1322         1108.622143  1085.400347 0.00075643 
  1305         1107.185642  1085.381218 0.000766284 
  1295         1105.940555  1085.362093 0.000772201 
  1256         1104.845679  1085.342974 0.000796178 
  1210         1103.869889  1085.32386  0.000826446 
  1242         1102.989999  1085.304751 0.000805153 
  1240         1102.187782  1085.285647 0.000806452 
  1190         1101.450224  1085.266549 0.000840336 
  1161         1100.767087  1085.247455 0.000861326 
  1197         1100.130591  1085.228367 0.000835422 
  1173         1099.535038  1085.209283 0.000852515 
  1136         1098.975433  1085.190205 0.000880282 
  1113         1098.448274  1085.171131 0.000898473 
  1137         1097.950438  1085.152063 0.000879507 
  1142         1097.479305  1085.132999 0.000875657 
  1131         1097.032897  1085.11394  0.000884173 
  1100         1096.609078  1085.094886 0.000909091 
  1109         1096.206364  1085.075837 0.000901713 
  1111         1095.82322   1085.056792 0.00090009 
  1134         1095.458253  1085.037753 0.000881834 
  1099         1095.110399  1085.018718 0.000909918 
  1075         1094.778367  1084.999687 0.000930233 
  1091         1094.461272  1084.980661 0.00091659 
  1102         1094.15815   1084.96164  0.000907441 
  1131         1093.868092  1084.942624 0.000884173 
  1095         1093.590423  1084.923612 0.000913242 
  1121         1093.324264  1084.904604 0.000892061 
  1115         1093.069036  1084.885601 0.000896861 
  1088         1092.824084  1084.866603 0.000919118 
  1127         1092.588782  1084.847609 0.000887311 
  1117         1092.362681  1084.82862  0.000895255 
  1119         1092.145154  1084.809634 0.000893655 
  1119         1091.935814  1084.790653 0.000893655 
  1137         1091.734201  1084.771677 0.000879507 
  1101         1091.539871  1084.752705 0.000908265 
  1074         1091.352515  1084.733737 0.000931099 
  1113         1091.17168   1084.714774 0.000898473 
  1113         1090.997096  1084.695814 0.000898473 
  1100         1090.828433  1084.676859 0.000909091 
  1089         1090.665369  1084.657908 0.000918274 
  1087         1090.50769   1084.638962 0.000919963 
  1114         1090.355056  1084.620019 0.000897666 
  1109         1090.207279  1084.60108  0.000901713 
  1140         1090.064116  1084.582146 0.000877193 
  1059         1089.925329  1084.563216 0.000944287 
  1129         1089.790765  1084.54429  0.00088574 
  1076         1089.660168  1084.525367 0.000929368 
  1090         1089.533402  1084.506449 0.000917431 
  1044         1089.410285  1084.487535 0.000957854 
  1110         1089.290638  1084.468624 0.000900901 
  1092         1089.174353  1084.449718 0.000915751 
  1088         1089.061229  1084.430816 0.000919118 
  1056         1088.951168  1084.411917 0.00094697 
  1118         1088.843898  1084.393022 0.000894454 
  1097         1088.739553  1084.374132 0.000911577 
  1081         1088.637915  1084.355245 0.000925069 
  1041         1088.53883   1084.336361 0.000960615 
  1041         1088.442226  1084.317482 0.000960615 
  1086         1088.347996  1084.298606 0.00092081 
  1100         1088.256034  1084.279734 0.000909091 
  1065         1088.166281  1084.260866 0.000938967 
  1063         1088.078543  1084.242001 0.000940734 
  1108         1087.992904  1084.22314  0.000902527 
  1054         1087.909215  1084.204283 0.000948767 
  1066         1087.82739   1084.18543  0.000938086 
  1075         1087.747384  1084.16658  0.000930233 
  1040         1087.669099  1084.147733 0.000961538 
  1042         1087.592495  1084.12889  0.000959693 
  1025         1087.517506  1084.110051 0.00097561 
  1079         1087.444065  1084.091215 0.000926784 
  1066         1087.37214   1084.072383 0.000938086 
  1068         1087.301648  1084.053554 0.00093633 
  1075         1087.232561  1084.034729 0.000930233 
  1068         1087.164826  1084.015907 0.00093633 
  1070         1087.098388  1083.997089 0.000934579 
  1082         1087.033225  1083.978274 0.000924214 
  1087         1086.969267  1083.959463 0.000919963 
  1084         1086.906494  1083.940654 0.000922509 
  1078         1086.844864  1083.92185  0.000927644 
  1074         1086.78433   1083.903048 0.000931099 
  1055         1086.724877  1083.88425  0.000947867 
  1050         1086.666448  1083.865455 0.000952381 
  1061         1086.609027  1083.846664 0.000942507 
  1077         1086.55258   1083.827875 0.000928505 
  1066         1086.497069  1083.80909  0.000938086 
  1058         1086.442483  1083.790309 0.00094518 
  1073         1086.388773  1083.77153  0.000931966 
  1097         1086.335928  1083.752755 0.000911577 
  1066         1086.283922  1083.733983 0.000938086 
  1086         1086.232721  1083.715214 0.00092081 
  1030         1086.182318  1083.696448 0.000970874 
  1036         1086.132673  1083.677685 0.000965251 
  1032         1086.083777  1083.658926 0.000968992 
  1066         1085.997077  1083.601638 0.000938086 
  1080         1085.949697  1083.582973 0.000925926 
  1025         1085.903012  1083.564311 0.00097561 
  1068         1085.856988  1083.545652 0.00093633 
  1010         1085.811619  1083.526996 0.000990099 
  1076         1085.766886  1083.508343 0.000929368 
  1025         1085.722767  1083.489692 0.00097561 
  1043         1085.679261  1083.471044 0.000958773 
  1071         1085.636335  1083.452398 0.000933707 
  1055         1085.593989  1083.433755 0.000947867 
  1073         1085.552205  1083.415115 0.000931966 
  1083         1085.510966  1083.396478 0.000923361 
  1067         1085.470272  1083.377843 0.000937207 
  1061         1085.430096  1083.359211 0.000942507 
  1084         1085.390436  1083.340581 0.000922509 
  1099         1085.351282  1083.321954 0.000909918 
  1068         1085.312616  1083.30333  0.00093633 
  1109         1085.27444   1083.284708 0.000901713 
  1093         1085.236732  1083.266089 0.000914913 
  1109         1085.199492  1083.247472 0.000901713 
  1102         1085.162711  1083.228858 0.000907441 
  1077         1085.126375  1083.210246 0.000928505 
  1078         1085.090487  1083.191637 0.000927644 
  1072         1085.055028  1083.17303  0.000932836 
  1125         1085.02      1083.154426 0.000888889 
  1085         1084.985395  1083.135824 0.000921659 
  1073         1084.951204  1083.117225 0.000931966 
  1050         1084.917429  1083.098628 0.000952381 
  1075         1084.884055  1083.080033 0.000930233 
  1083         1084.851085  1083.061441 0.000923361 
  1060         1084.818515  1083.042852 0.000943396 
  1072         1084.786335  1083.024264 0.000932836 
  1084         1084.754553  1083.00568  0.000922509 
  1059         1084.723154  1082.987097 0.000944287 
  1073         1084.692143  1082.968517 0.000931966 
  1046         1084.661519  1082.949939 0.000956023 
  1045         1084.631275  1082.931364 0.000956938 
  1069         1084.601418  1082.91279  0.000935454 
  1071         1084.57194   1082.89422  0.000933707 
  1089         1084.542846  1082.875651 0.000918274 
  1053         1084.514138  1082.857085 0.000949668 
  1046         1084.485811  1082.838521 0.000956023 
  1054         1084.457876  1082.819959 0.000948767 
  1056         1084.430326  1082.8014   0.00094697 
  1053         1084.403171  1082.782843 0.000949668 
  1058         1084.376414  1082.764288 0.00094518 
  1075         1084.350056  1082.745735 0.000930233 
  1084         1084.324109  1082.727184 0.000922509 
  1076         1084.298572  1082.708636 0.000929368 
  1041         1084.273458  1082.69009  0.000960615 
  1038         1084.248773  1082.671546 0.000963391 
  1049         1084.224523  1082.653004 0.000953289 
  1026         1084.200726  1082.634465 0.000974659 
  1069         1084.177384  1082.615927 0.000935454 
  1051         1084.154517  1082.597392 0.000951475 
  1102         1084.132137  1082.578859 0.000907441 
  1099         1084.110256  1082.560328 0.000909918 
  1088         1084.088898  1082.541799 0.000919118 
  1108         1084.068073  1082.523273 0.000902527 
  1121         1084.047811  1082.504748 0.000892061 
  1126         1084.028131  1082.486225 0.000888099 
  1052         1084.009054  1082.467705 0.00095057 
  1078         1083.990619  1082.449186 0.000927644 
  1101         1083.972845  1082.43067  0.000908265 
  1054         1083.955779  1082.412156 0.000948767 
  1151         1083.939458  1082.393643 0.00086881 
  1088         1083.923923  1082.375133 0.000919118 
  1098         1083.909239  1082.356625 0.000910747 
  1090         1083.895458  1082.338119 0.000917431 
  1031         1083.882669  1082.319615 0.000969932 
  1075         1083.870966  1082.301113 0.000930233 
  1086         1083.860462  1082.282612 0.00092081 
  1118         1083.851324  1082.264114 0.000894454 
  1037         1083.843739  1082.245618 0.00096432 
  1057         1083.837983  1082.227124 0.000946074 
  1030         1083.834398  1082.208631 0.000970874 
  1052         1083.83343   1082.190141 0.00095057 
  1072         1083.835704  1082.171653 0.000932836 
  1065         1083.841996  1082.153166 0.000938967 
  1040         1083.853374  1082.134681 0.000961538 
  1054         1083.871192  1082.116199 0.000948767 
  1049         1083.897186  1082.097718 0.000953289 
  1079         1083.933631  1082.079239 0.000926784 
  1095         1083.983312  1082.060762 0.000913242 
  1059         1084.049797  1082.042287 0.000944287 
  1093         1084.137391  1082.023814 0.000914913 
  1072         1084.251287  1082.005343 0.000932836 
  1061         1084.39781   1081.986873 0.000942507 
  1068         1084.584171  1081.968406 0.00093633 
  1064         1084.818918  1081.94994  0.00093985 
  1083         1085.111512  1081.931476 0.000923361 
  1062         1085.445544  1081.886205 0.00094162 
  1048         1085.886266  1081.867794 0.000954198 
  1043         1086.418499  1081.849384 0.000958773 
  1053         1087.054759  1081.830976 0.000949668 
  1068         1087.80689   1081.81257  0.00093633 
  1086         1088.685846  1081.794166 0.00092081 
  1081         1089.702019  1081.775763 0.000925069 
  1067         1090.86263   1081.757362 0.000937207 
  1047         1092.173434  1081.738962 0.00095511 
  1068         1093.635756  1081.720564 0.00093633 
  1108         1095.246669  1081.702168 0.000902527 
  1121         1097.000064  1081.683773 0.000892061 
  1126         1098.882832  1081.66538  0.000888099 
  1099         1100.87867   1081.646989 0.000909918 
  1081         1102.964239  1081.628599 0.000925069 
  1105         1105.110775  1081.61021  0.000904977 
  1124         1107.286336  1081.591824 0.00088968 
  1110         1109.45186   1081.573439 0.000900901 
  1089         1111.566945  1081.555055 0.000918274 
  1083         1113.586431  1081.536673 0.000923361 
  1167         1115.464024  1081.518293 0.000856898 
  1146         1117.155931  1081.499914 0.0008726 
  1135         1118.619896  1081.481536 0.000881057 
  1097         1119.822164  1081.463161 0.000911577 
  1133         1120.737161  1081.444786 0.000882613 
  1125         1121.35107   1081.426414 0.000888889 
  1123         1121.662414  1081.408042 0.000890472 
  1106         1121.679841  1081.389673 0.000904159 
  1131         1121.420402  1081.371305 0.000884173 
  1156         1120.906287  1081.352938 0.000865052 
  1159         1120.162299  1081.334573 0.000862813 
  1104         1119.21267   1081.316209 0.000905797 
  1128         1118.081207  1081.297847 0.000886525 
  1148         1116.788612  1081.279486 0.00087108 
  1155         1115.354723  1081.261127 0.000865801 
  1139         1113.798492  1081.242769 0.000877963 
  1178         1112.137995  1081.224413 0.000848896 
  1101         1110.392219  1081.206058 0.000908265 
  1162         1108.582695  1081.187705 0.000860585 
  1155         1106.732048  1081.169353 0.000865801 
  1171         1104.863776  1081.151002 0.000853971 
  1216         1103.002282  1081.132653 0.000822368 
  1173         1101.167563  1081.114306 0.000852515 
  1122         1099.380666  1081.09596  0.000891266 
  1228         1097.658937  1081.077615 0.000814332 
  1245         1096.016782  1081.059272 0.000803213 
  1162         1094.466523  1081.04093  0.000860585 
  1218         1093.015012  1081.022589 0.000821018 
  1233         1091.669089  1081.00425  0.00081103 
  1271         1090.4322    1080.985912 0.000786782 
  1211         1089.305512  1080.967576 0.000825764 
  1220         1088.28867   1080.949241 0.000819672 
  1241         1087.377817  1080.930908 0.000805802 
  1226         1086.569265  1080.912575 0.000815661 
  1257         1085.857445  1080.894245 0.000795545 
  1332         1085.235773  1080.875915 0.000750751 
  1324         1084.697228  1080.857587 0.000755287 
  1291         1084.233486  1080.839261 0.000774593 
  1332         1083.836962  1080.820935 0.000750751 
  1330         1083.499813  1080.802611 0.00075188 
  1338         1083.214457  1080.784289 0.000747384 
  1323         1082.973851  1080.765967 0.000755858 
  1345         1082.771128  1080.747647 0.000743494 
  1354         1082.600425  1080.729329 0.000738552 
  1320         1082.456398  1080.711011 0.000757576 
  1305         1082.334376  1080.692695 0.000766284 
  1311         1082.23038   1080.674381 0.000762777 
  1288         1082.140906  1080.656067 0.000776398 
  1219         1082.06316   1080.637755 0.000820345 
  1206         1081.994795  1080.619444 0.000829187 
  1242         1081.933905  1080.601135 0.000805153 
  1212         1081.878979  1080.582827 0.000825083 
  1159         1081.828763  1080.56452  0.000862813 
  1158         1081.782323  1080.546214 0.000863558 
  1152         1081.738915  1080.52791  0.000868056 
  1135         1081.697968  1080.509607 0.000881057 
  1153         1081.659052  1080.491305 0.000867303 
  1198         1081.621812  1080.473005 0.000834725 
  1186         1081.586003  1080.454706 0.00084317 
  1152         1081.551432  1080.436408 0.000868056 
  1107         1081.517952  1080.418111 0.000903342 
  1100         1081.485462  1080.399815 0.000909091 
  1081         1081.453861  1080.381521 0.000925069 
  1128         1081.423093  1080.363228 0.000886525 
  1120         1081.393108  1080.344936 0.000892857 
  1093         1081.363867  1080.326646 0.000914913 
  1126         1081.335347  1080.308357 0.000888099 
  1160         1081.307512  1080.290069 0.000862069 
  1135         1081.280345  1080.271782 0.000881057 
  1078         1081.253827  1080.253496 0.000927644 
  1108         1081.22794   1080.235212 0.000902527 
  1086         1081.202668  1080.216929 0.00092081 
  1090         1081.17798   1080.198647 0.000917431 
  1134         1081.153853  1080.180366 0.000881834 
  1086         1081.130258  1080.162086 0.00092081 
  1113         1081.10716   1080.143808 0.000898473 
  1059         1081.084523  1080.125531 0.000944287 
  1112         1081.062294  1080.107255 0.000899281 
  1084         1081.040422  1080.08898  0.000922509 
  1068         1081.018853  1080.070706 0.00093633 
  1043         1080.997523  1080.052434 0.000958773 
  1106         1080.97637   1080.034162 0.000904159 
  1136         1080.955321  1080.015892 0.000880282 
  1166         1080.934308  1079.997623 0.000857633 
  1084         1080.913262  1079.979356 0.000922509 
  1141         1080.892122  1079.961089 0.000876424 
  1091         1080.870835  1079.942824 0.00091659 
  1099         1080.849355  1079.924559 0.000909918 
  1121         1080.827657  1079.906296 0.000892061 
  1102         1080.805729  1079.888034 0.000907441 
  1115         1080.783573  1079.869773 0.000896861 
  1131         1080.761205  1079.851513 0.000884173 
  1081         1080.738645  1079.833255 0.000925069 
  1111         1080.71592   1079.814997 0.00090009 
  1111         1080.693056  1079.796741 0.00090009 
  1122         1080.670078  1079.778486 0.000891266 
  1145         1080.647013  1079.760231 0.000873362 
  1131         1080.62388   1079.741978 0.000884173 
  1086         1080.600703  1079.723727 0.00092081 
  1120         1080.577495  1079.705476 0.000892857 
  1103         1080.55428   1079.687226 0.000906618 
  1073         1080.531084  1079.668978 0.000931966 
  1163         1080.507927  1079.65073  0.000859845 
  1162         1080.48484   1079.632484 0.000860585 
  1112         1080.461846  1079.614238 0.000899281 
  1111         1080.438973  1079.595994 0.00090009 
  1122         1080.416249  1079.577751 0.000891266 
  1117         1080.393693  1079.559509 0.000895255 
  1104         1080.371325  1079.541268 0.000905797 
  1098         1080.349158  1079.523028 0.000910747 
  1123         1080.327204  1079.50479  0.000890472 
  1147         1080.305475  1079.486552 0.00087184 
  1135         1080.28397   1079.468315 0.000881057 
  1120         1080.262696  1079.45008  0.000892857 
  1084         1080.241648  1079.431845 0.000922509 
  1089         1080.220824  1079.413612 0.000918274 
  1090         1080.200221  1079.395379 0.000917431 
  1053         1080.179829  1079.377148 0.000949668 
  1015         1080.159641  1079.358918 0.000985222 
  1067         1080.139645  1079.340688 0.000937207 
  1047         1080.119832  1079.32246  0.00095511 
  1096         1080.100191  1079.304233 0.000912409 
  1131         1080.080711  1079.286007 0.000884173 
  1109         1080.061379  1079.267782 0.000901713 
  1125         1080.042186  1079.249558 0.000888889 
  1081         1080.02312   1079.231335 0.000925069 
  1116         1080.004174  1079.213113 0.000896057 
  1118         1079.985338  1079.194892 0.000894454 
  1134         1079.966606  1079.176672 0.000881834 
  1042         1079.947969  1079.158453 0.000959693 
  1079         1079.92942   1079.140235 0.000926784 
  1068         1079.910958  1079.122018 0.00093633 
  1081         1079.892577  1079.103803 0.000925069 
  1096         1079.874272  1079.085588 0.000912409 
  1050         1079.856041  1079.067374 0.000952381 
  1113         1079.837881  1079.049161 0.000898473 
  1066         1079.819791  1079.030949 0.000938086 
  1018         1079.801769  1079.012738 0.000982318 
  1052         1079.783813  1078.994529 0.00095057 
  1058         1079.765923  1078.97632  0.00094518 
  1058         1079.748095  1078.958112 0.00094518 
  1085         1079.730333  1078.939905 0.000921659 
  1063         1079.712634  1078.921699 0.000940734 
  1048         1079.694998  1078.903494 0.000954198 
  1076         1079.677424  1078.88529  0.000929368 
  1072         1079.659911  1078.867087 0.000932836 
  1076         1079.642461  1078.848885 0.000929368 
  1061         1079.625073  1078.830684 0.000942507 
  1078         1079.607748  1078.812484 0.000927644 
  1077         1079.590483  1078.794285 0.000928505 
  1110         1079.573279  1078.776087 0.000900901 
  1097         1079.556139  1078.75789  0.000911577 
  1083         1079.53906   1078.739694 0.000923361 
  1099         1079.522043  1078.721499 0.000909918 
  1075         1079.505089  1078.703304 0.000930233 
  1095         1079.488195  1078.685111 0.000913242 
  1047         1079.471365  1078.666919 0.00095511 
  1057         1079.454597  1078.648727 0.000946074 
  1076         1079.437893  1078.630537 0.000929368 
  1042         1079.421252  1078.612347 0.000959693 
  1041         1079.404673  1078.594159 0.000960615 
  1035         1079.388159  1078.575971 0.000966184 
  1053         1079.37171   1078.557785 0.000949668 
  1088         1079.355325  1078.539599 0.000919118 
  1088         1079.339005  1078.521414 0.000919118 
  1083         1079.322749  1078.50323  0.000923361 
  1041         1079.306561  1078.485047 0.000960615 
  1027         1079.290439  1078.466865 0.00097371 
  1070         1079.274384  1078.448684 0.000934579 
  1076         1079.258396  1078.430504 0.000929368 
  1055         1079.242475  1078.412325 0.000947867 
  1085         1079.226625  1078.394146 0.000921659 
  1061         1079.210843  1078.375969 0.000942507 
  1046         1079.195133  1078.357792 0.000956023 
  1075         1079.179492  1078.339617 0.000930233 
  1027         1079.163921  1078.321442 0.00097371 
  1068         1079.148424  1078.303268 0.00093633 
  1065         1079.133     1078.285095 0.000938967 
  1072         1079.117651  1078.266923 0.000932836 
  1136         1079.102375  1078.248752 0.000880282 
  1085         1079.087174  1078.230582 0.000921659 
  1039         1079.07205   1078.212413 0.000962464 
  1090         1079.057004  1078.194244 0.000917431 
  1056         1079.042037  1078.176077 0.00094697 
  1130         1079.027149  1078.15791  0.000884956 
  1099         1079.012339  1078.139744 0.000909918 
  1046         1078.997613  1078.12158  0.000956023 
  1094         1078.982969  1078.103416 0.000914077 
  1062         1078.96841   1078.085252 0.00094162 
  1029         1078.953935  1078.06709  0.000971817 
  1083         1078.939545  1078.048929 0.000923361 
  1078         1078.925244  1078.030768 0.000927644 
  1070         1078.911032  1078.012609 0.000934579 
  1075         1078.89691   1077.99445  0.000930233 
  1100         1078.88288   1077.976292 0.000909091 
  1086         1078.86894   1077.958135 0.00092081 
  1068         1078.855097  1077.939979 0.00093633 
  1048         1078.84135   1077.921824 0.000954198 
  1082         1078.827701  1077.90367  0.000924214 
  1099         1078.814151  1077.885516 0.000909918 
  1041         1078.8007    1077.867363 0.000960615 
  1054         1078.787353  1077.849212 0.000948767 
  1074         1078.774111  1077.831061 0.000931099 
  1037         1078.760976  1077.812911 0.00096432 
  1053         1078.747949  1077.794761 0.000949668 
  1057         1078.735029  1077.776613 0.000946074 
  1043         1078.722224  1077.758466 0.000958773 
  1057         1078.709533  1077.740319 0.000946074 
  1058         1078.696959  1077.722173 0.00094518 
  1074         1078.684503  1077.704028 0.000931099 
  1074         1078.672165  1077.685884 0.000931099 
  1052         1078.659953  1077.667741 0.00095057 
  1020         1078.647867  1077.649598 0.000980392 
  1038         1078.635909  1077.631456 0.000963391 
  1049         1078.624082  1077.613316 0.000953289 
  1071         1078.612384  1077.595176 0.000933707 
  1115         1078.600826  1077.577036 0.000896861 
  1111         1078.589406  1077.558898 0.00090009 
  1074         1078.578129  1077.540761 0.000931099 
  1065         1078.566997  1077.522624 0.000938967 
  1060         1078.556008  1077.504488 0.000943396 
  1087         1078.545174  1077.486353 0.000919963 
  1089         1078.534494  1077.468219 0.000918274 
  1073         1078.523972  1077.450086 0.000931966 
  1093         1078.513611  1077.431953 0.000914913 
  1083         1078.503411  1077.413821 0.000923361 
  1075         1078.493383  1077.39569  0.000930233 
  1035         1078.483528  1077.37756  0.000966184 
  1025         1078.473849  1077.359431 0.00097561 
  1047         1078.46435   1077.341302 0.00095511 
  1052         1078.455031  1077.323175 0.00095057 
  1083         1078.445906  1077.305048 0.000923361 
  1056         1078.436974  1077.286922 0.00094697 
  1048         1078.428241  1077.268796 0.000954198 
  1027         1078.41971   1077.250672 0.00097371 
  1055         1078.411382  1077.232548 0.000947867 
  1092         1078.403272  1077.214425 0.000915751 
  1071         1078.39538   1077.196303 0.000933707 
  1078         1078.387713  1077.178182 0.000927644 
  1049         1078.380275  1077.160061 0.000953289 
  1099         1078.373066  1077.141942 0.000909918 
  1120         1078.366105  1077.123823 0.000892857 
  1079         1078.359391  1077.105705 0.000926784 
  1022         1078.352932  1077.087587 0.000978474 
  1078         1078.346734  1077.069471 0.000927644 
  1061         1078.340798  1077.051355 0.000942507 
  1068         1078.335143  1077.03324  0.00093633 
  1061         1078.329771  1077.015126 0.000942507 
  1038         1078.324689  1076.997012 0.000963391 
  1059         1078.319907  1076.9789   0.000944287 
  1034         1078.315423  1076.960788 0.000967118 
  1058         1078.311263  1076.942677 0.00094518 
  1093         1078.307427  1076.924566 0.000914913 
  1075         1078.303925  1076.906457 0.000930233 
  1044         1078.300767  1076.888348 0.000957854 
  1007         1078.297955  1076.87024  0.000993049 
  1102         1078.295514  1076.852133 0.000907441 
  1072         1078.293448  1076.834026 0.000932836 
  984          1078.291768  1076.815921 0.00101626 
  1032         1078.290487  1076.797816 0.000968992 
  1044         1078.289606  1076.779711 0.000957854 
  1069         1078.289156  1076.761608 0.000935454 
  1068         1078.289143  1076.743505 0.00093633 
  1067         1078.289579  1076.725403 0.000937207 
  1074         1078.290479  1076.707302 0.000931099 
  1067         1078.291847  1076.689202 0.000937207 
  1052         1078.293719  1076.671102 0.00095057 
  1106         1078.296101  1076.653003 0.000904159 
  1099         1078.29901   1076.634905 0.000909918 
  1057         1078.302463  1076.616808 0.000946074 
  1034         1078.306467  1076.598711 0.000967118 
  1063         1078.311064  1076.580615 0.000940734 
  1035         1078.316262  1076.56252  0.000966184 
  1029         1078.322082  1076.544426 0.000971817 
  1071         1078.328547  1076.526332 0.000933707 
  1096         1078.335664  1076.508239 0.000912409 
  1052         1078.343483  1076.490147 0.00095057 
  1060         1078.352017  1076.472056 0.000943396 
  1082         1078.361292  1076.453965 0.000924214 
  1080         1078.371334  1076.435875 0.000925926 
  1047         1078.382157  1076.417786 0.00095511 
  1040         1078.393819  1076.399698 0.000961538 
  1088         1078.406338  1076.38161  0.000919118 
  1057         1078.419746  1076.363523 0.000946074 
  1064         1078.434077  1076.345437 0.00093985 
  1068         1078.449349  1076.327351 0.00093633 
  1069         1078.465634  1076.309266 0.000935454 
  1081         1078.482954  1076.291182 0.000925069 
  1086         1078.501353  1076.273099 0.00092081 
  1043         1078.520873  1076.255016 0.000958773 
  1015         1078.541538  1076.236934 0.000985222 
  1072         1078.563436  1076.218853 0.000932836 
  1083         1078.586601  1076.200773 0.000923361 
  1057         1078.611086  1076.182693 0.000946074 
  1108         1078.636945  1076.164614 0.000902527 
  1077         1078.664214  1076.146536 0.000928505 
  1034         1078.693003  1076.128458 0.000967118 
  1069         1078.723356  1076.110381 0.000935454 
  1095         1078.755343  1076.092305 0.000913242 
  1099         1078.789036  1076.07423  0.000909918 
  1073         1078.824485  1076.056155 0.000931966 
  1042         1078.861828  1076.038081 0.000959693 
  1080         1078.901127  1076.020008 0.000925926 
  1044         1078.942474  1076.001935 0.000957854 
  1047         1078.985966  1075.983864 0.00095511 
  1031         1079.031674  1075.965792 0.000969932 
  1050         1079.079773  1075.947722 0.000952381 
  1098         1079.130351  1075.929652 0.000910747 
  1069         1079.183533  1075.911583 0.000935454 
  992          1079.239451  1075.893515 0.001008065 
  1003         1079.298204  1075.875447 0.000997009 
  1072         1079.360023  1075.85738  0.000932836 
  1053         1079.425032  1075.839314 0.000949668 
  1093         1079.493403  1075.821249 0.000914913 
  1055         1079.565318  1075.803184 0.000947867 
  1014         1079.640923  1075.78512  0.000986193 
  1055         1079.720525  1075.767056 0.000947867 
  1067         1079.804306  1075.748994 0.000937207 
  1088         1079.892507  1075.730931 0.000919118 
  1071         1079.985388  1075.71287  0.000933707 
  1081         1080.083167  1075.694809 0.000925069 
  1053         1080.186274  1075.67675  0.000949668 
  1043         1080.294983  1075.65869  0.000958773 
  1040         1080.40966   1075.640632 0.000961538 
  1064         1080.530702  1075.622574 0.00093985 
  1090         1080.658478  1075.604517 0.000917431 
  1120         1080.793644  1075.58646  0.000892857 
  1077         1080.936699  1075.568404 0.000928505 
  1081         1081.088303  1075.550349 0.000925069 
  1070         1081.24923   1075.532295 0.000934579 
  1081         1081.420299  1075.514241 0.000925069 
  1068         1081.602833  1075.496188 0.00093633 
  1093         1081.798121  1075.478135 0.000914913 
  1125         1082.007889  1075.460084 0.000888889 
  1070         1082.234315  1075.442033 0.000934579 
  1101         1082.480027  1075.423982 0.000908265 
  1097         1082.748862  1075.405932 0.000911577 
  1077         1083.045263  1075.387883 0.000928505 
  1077         1083.375095  1075.369835 0.000928505 
  1086         1083.745885  1075.351787 0.00092081 
  1064         1084.166995  1075.33374  0.00093985 
  1083         1084.651124  1075.315694 0.000923361 
  1121         1085.213479  1075.297648 0.000892061 
  1077         1085.873384  1075.279603 0.000928505 
  1115         1086.654815  1075.261559 0.000896861 
  1069         1087.586676  1075.243515 0.000935454 
  1034         1088.705883  1075.225472 0.000967118 
  1051         1090.055097  1075.20743  0.000951475 
  1079         1091.685605  1075.189388 0.000926784 
  1078         1093.657588  1075.171347 0.000927644 
  1119         1096.039252  1075.153307 0.000893655 
  1057         1098.912857  1075.135267 0.000946074 
  1073         1102.36661   1075.117228 0.000931966 
  1063         1106.499418  1075.09919  0.000940734 
  1084         1111.418706  1075.081152 0.000922509 
  1124         1117.235225  1075.063115 0.00088968 
  1065         1124.074676  1075.045079 0.000938967 
  1100         1132.054868  1075.027043 0.000909091 
  1130         1141.29473   1075.009008 0.000884956 
  1141         1151.906932  1074.990974 0.000876424 
  1131         1163.985562  1074.97294  0.000884173 
  1144         1177.629299  1074.954907 0.000874126 
  1163         1192.89435   1074.936875 0.000859845 
  1132         1209.815517  1074.918843 0.000883392 
  1159         1228.39428   1074.900812 0.000862813 
  1186         1248.581881  1074.882781 0.00084317 
  1169         1270.322624  1074.864752 0.000855432 
  1183         1293.480952  1074.846722 0.000845309 
  1162         1317.884866  1074.828694 0.000860585 
  1253         1343.314319  1074.810666 0.000798085 
  1265         1369.486308  1074.792639 0.000790514 
  1250         1396.117382  1074.774612 0.0008    
  1265         1422.836767  1074.756586 0.000790514 
  1334         1449.250728  1074.738561 0.000749625 
  1354         1474.935342  1074.720536 0.000738552 
  1424         1499.432488  1074.702512 0.000702247 
  1428         1522.319798  1074.684489 0.00070028 
  1486         1543.144339  1074.666466 0.000672948 
  1591         1561.502009  1074.648444 0.000628536 
  1585         1577.048364  1074.630423 0.000630915 
  1597         1589.516079  1074.612402 0.000626174 
  1667         1598.758821  1074.594382 0.00059988 
  1642         1604.715979  1074.576362 0.000609013 
  1722         1607.438266  1074.558343 0.00058072 
  1684         1607.063784  1074.540325 0.000593824 
  1669         1603.798738  1074.522307 0.000599161 
  1712         1597.882308  1074.50429  0.000584112 
  1692         1589.577843  1074.486274 0.000591017 
  1643         1579.147596  1074.468258 0.000608643 
  1598         1566.842738  1074.450243 0.000625782 
  1557         1552.906976  1074.432229 0.000642261 
  1534         1537.540643  1074.414215 0.00065189 
  1537         1520.958673  1074.396202 0.000650618 
  1548         1503.361769  1074.378189 0.000645995 
  1522         1484.954714  1074.360177 0.00065703 
  1537         1465.965183  1074.342166 0.000650618 
  1559         1446.596831  1074.324155 0.000641437 
  1538         1427.104572  1074.306145 0.000650195 
  1478         1407.73328   1074.288136 0.00067659 
  1457         1388.724726  1074.270127 0.000686342 
  1406         1370.319081  1074.252119 0.000711238 
  1418         1352.693512  1074.234111 0.000705219 
  1357         1336.040273  1074.216104 0.00073692 
  1262         1320.499867  1074.198098 0.000792393 
  1254         1306.178994  1074.180092 0.000797448 
  1271         1293.159357  1074.162087 0.000786782 
  1269         1281.453562  1074.144083 0.000788022 
  1337         1271.080805  1074.126079 0.000747943 
  1245         1262.010341  1074.108076 0.000803213 
  1202         1254.183491  1074.090073 0.000831947 
  1238         1247.521713  1074.072071 0.000807754 
  1253         1241.89889   1074.05407  0.000798085 
  1227         1237.19748   1074.036069 0.000814996 
  1259         1233.271458  1074.018069 0.000794281 
  1191         1229.965409  1074.00007  0.000839631 
  1190         1227.125468  1073.982071 0.000840336 
  1167         1224.589459  1073.964072 0.000856898 
  1152         1222.22088   1073.946075 0.000868056 
  1247         1219.897699  1073.928078 0.000801925 
  1246         1217.518187  1073.910081 0.000802568 
  1206         1215.008089  1073.892085 0.000829187 
  1139         1212.312621  1073.87409  0.000877963 
  1190         1209.397671  1073.856096 0.000840336 
  1155         1206.251239  1073.838102 0.000865801 
  1186         1202.867242  1073.820108 0.00084317 
  1125         1199.24921   1073.802115 0.000888889 
  1156         1195.405289  1073.784123 0.000865052 
  1181         1191.339117  1073.766132 0.00084674 
  1219         1187.066093  1073.748141 0.000820345 
  1148         1182.59697   1073.73015  0.00087108 
  1115         1177.94627   1073.712161 0.000896861 
  1164         1173.133767  1073.694171 0.000859107 
  1139         1168.176975  1073.676183 0.000877963 
  1111         1163.107342  1073.658195 0.00090009 
  1152         1157.958886  1073.640207 0.000868056 
  1145         1152.770755  1073.622221 0.000873362 
  1099         1147.586487  1073.604235 0.000909918 
  1141         1142.446208  1073.586249 0.000876424 
  1125         1137.391636  1073.568264 0.000888889 
  1144         1132.462374  1073.55028  0.000874126 
  1140         1127.693142  1073.532296 0.000877193 
  1125         1123.114608  1073.514313 0.000888889 
  1133         1118.750959  1073.49633  0.000882613 
  1097         1114.620263  1073.478348 0.000911577 
  1064         1110.738844  1073.460367 0.00093985 
  1071         1107.117005  1073.442386 0.000933707 
  1106         1103.760845  1073.424406 0.000904159 
  1113         1100.672402  1073.406426 0.000898473 
  1092         1097.847583  1073.388447 0.000915751 
  1066         1095.282201  1073.370469 0.000938086 
  1044         1092.967813  1073.352491 0.000957854 
  1077         1090.893376  1073.334514 0.000928505 
  1089         1089.046153  1073.316537 0.000918274 
  1098         1087.409855  1073.298561 0.000910747 
  1073         1085.969374  1073.280586 0.000931966 
  1085         1084.708078  1073.262611 0.000921659 
  1080         1083.609     1073.244637 0.000925926 
  1043         1082.655641  1073.226663 0.000958773 
  1038         1081.830923  1073.20869  0.000963391 
  1014         1081.119745  1073.190718 0.000986193 
  1031         1080.507571  1073.172746 0.000969932 
  1076         1079.980894  1073.154774 0.000929368 
  1045         1079.527626  1073.136804 0.000956938 
  1067         1079.136494  1073.118834 0.000937207 
  1092         1078.798006  1073.100864 0.000915751 
  1107         1078.503741  1073.082895 0.000903342 
  1075         1078.246352  1073.064927 0.000930233 
  1035         1078.01967   1073.046959 0.000966184 
  1043         1077.818333  1073.028992 0.000958773 
  1046         1077.638028  1073.011025 0.000956023 
  1085         1077.475157  1072.993059 0.000921659 
  1029         1077.326699  1072.975093 0.000971817 
  1041         1077.190254  1072.957129 0.000960615 
  1066         1077.063825  1072.939164 0.000938086 
  1125         1076.945864  1072.9212   0.000888889 
  1055         1076.835132  1072.903237 0.000947867 
  1073         1076.730586  1072.885275 0.000931966 
  1117         1076.631432  1072.867313 0.000895255 
  1077         1076.53701   1072.849351 0.000928505 
  1104         1076.446814  1072.83139  0.000905797 
  1051         1076.360446  1072.81343  0.000951475 
  1023         1076.277533  1072.79547  0.000977517 
  1105         1076.197802  1072.777511 0.000904977 
  1087         1076.121008  1072.759553 0.000919963 
  1093         1076.046958  1072.741595 0.000914913 
  1050         1075.9755    1072.723637 0.000952381 
  1044         1075.906454  1072.705681 0.000957854 
  1038         1075.839695  1072.687724 0.000963391 
  1036         1075.775099  1072.669769 0.000965251 
  1055         1075.712564  1072.651814 0.000947867 
  1075         1075.652009  1072.633859 0.000930233 
  1077         1075.593318  1072.615905 0.000928505 
  1019         1075.536415  1072.597952 0.000981354 
  1022         1075.479269  1072.579999 0.000978474 
  1049         1075.425716  1072.562047 0.000953289 
  1092         1075.373752  1072.544095 0.000915751 
  1076         1075.323291  1072.526144 0.000929368 
  1061         1075.27428   1072.508193 0.000942507 
  1089         1075.226665  1072.490243 0.000918274 
  1061         1075.180393  1072.472294 0.000942507 
  1056         1075.135432  1072.454345 0.00094697 
  1082         1075.091716  1072.436397 0.000924214 
  1059         1075.048231  1072.418449 0.000944287 
  1008         1075.006891  1072.400502 0.000992063 
  1032         1074.96668   1072.382555 0.000968992 
  1025         1074.927578  1072.364609 0.00097561 
  1027         1074.889533  1072.346664 0.00097371 
  1065         1074.852517  1072.328719 0.000938967 
  1056         1074.816502  1072.310775 0.00094697 
  1075         1074.781461  1072.292831 0.000930233 
  1094         1074.747376  1072.274888 0.000914077 
  1111         1074.714212  1072.256945 0.00090009 
  1090         1074.681947  1072.239003 0.000917431 
  1060         1074.650562  1072.221061 0.000943396 
  1063         1074.620035  1072.20312  0.000940734 
  1072         1074.59036   1072.18518  0.000932836 
  1088         1074.561503  1072.16724  0.000919118 
  1087         1074.533452  1072.149301 0.000919963 
  1066         1074.506195  1072.131362 0.000938086 
  1081         1074.479713  1072.113424 0.000925069 
  1101         1074.454009  1072.095486 0.000908265 
  1073         1074.429052  1072.077549 0.000931966 
  1116         1074.404836  1072.059613 0.000896057 
  1089         1074.381355  1072.041677 0.000918274 
  1034         1074.358594  1072.023742 0.000967118 
  1041         1074.33656   1072.005807 0.000960615 
  1033         1074.315228  1071.987872 0.000968054 
  1031         1074.294597  1071.969939 0.000969932 
  1015         1074.274663  1071.952006 0.000985222 
  1049         1074.255418  1071.934073 0.000953289 
  1048         1074.23687   1071.916141 0.000954198 
  1038         1074.219     1071.898209 0.000963391 
  1041         1074.20181   1071.880278 0.000960615 
  1048         1074.185302  1071.862348 0.000954198 
  1025         1074.169468  1071.844418 0.00097561 
  1117         1074.154323  1071.826489 0.000895255 
  1037         1074.13985   1071.80856  0.00096432 
  1113         1074.126056  1071.790632 0.000898473 
  1068         1074.112946  1071.772704 0.00093633 
  1050         1074.100515  1071.754777 0.000952381 
  1029         1074.08878   1071.736851 0.000971817 
  1041         1074.077734  1071.718925 0.000960615 
  1115         1074.067381  1071.700999 0.000896861 
  1036         1074.057732  1071.683074 0.000965251 
  1041         1074.048786  1071.66515  0.000960615 
  1074         1074.040563  1071.647226 0.000931099 
  1038         1074.033062  1071.629303 0.000963391 
  1075         1074.026287  1071.61138  0.000930233 
  1087         1074.020257  1071.593458 0.000919963 
  1107         1074.014971  1071.575537 0.000903342 
  1100         1074.010456  1071.557616 0.000909091 
  1023         1074.006713  1071.539695 0.000977517 
  1062         1074.003752  1071.521775 0.00094162 
  1060         1074.001596  1071.503856 0.000943396 
  1088         1074.000248  1071.485937 0.000919118 
  1065         1073.999741  1071.468018 0.000938967 
  1098         1074.000076  1071.450101 0.000910747 
  1095         1074.001274  1071.432183 0.000913242 
  1061         1074.00336   1071.414267 0.000942507 
  1047         1074.006341  1071.396351 0.00095511 
  1076         1074.010259  1071.378435 0.000929368 
  1100         1074.01512   1071.36052  0.000909091 
  1117         1074.020946  1071.342605 0.000895255 
  1090         1074.027775  1071.324691 0.000917431 
  1100         1074.035616  1071.306778 0.000909091 
  1086         1074.044519  1071.288865 0.00092081 
  1067         1074.054497  1071.270953 0.000937207 
  1078         1074.065579  1071.253041 0.000927644 
  1073         1074.077812  1071.235129 0.000931966 
  1087         1074.09121   1071.217219 0.000919963 
  1084         1074.105833  1071.199308 0.000922509 
  1120         1074.121706  1071.181399 0.000892857 
  1153         1074.138864  1071.16349  0.000867303 
  1072         1074.157363  1071.145581 0.000932836 
  1044         1074.177228  1071.127673 0.000957854 
  1094         1074.198532  1071.109765 0.000914077 
  1128         1074.221311  1071.091858 0.000886525 
  1067         1074.245609  1071.073952 0.000937207 
  1069         1074.271499  1071.056046 0.000935454 
  1106         1074.299015  1071.038141 0.000904159 
  1087         1074.328247  1071.020236 0.000919963 
  1128         1074.359248  1071.002331 0.000886525 
  1049         1074.359871  1070.952224 0.000953289 
  1083         1074.394665  1070.93437  0.000923361 
  1035         1074.431426  1070.916516 0.000966184 
  1113         1074.470272  1070.898662 0.000898473 
  1092         1074.511262  1070.880809 0.000915751 
  1051         1074.554484  1070.862956 0.000951475 
  1038         1074.600056  1070.845103 0.000963391 
  1081         1074.648045  1070.827251 0.000925069 
  1043         1074.698601  1070.8094   0.000958773 
  1069         1074.751809  1070.791549 0.000935454 
  1097         1074.807786  1070.773698 0.000911577 
  1086         1074.866685  1070.755848 0.00092081 
  1077         1074.928602  1070.737998 0.000928505 
  1086         1074.993727  1070.720148 0.00092081 
  1020         1075.062197  1070.702299 0.000980392 
  1073         1075.134154  1070.684451 0.000931966 
  1042         1075.209808  1070.666602 0.000959693 
  1098         1075.289297  1070.648755 0.000910747 
  1083         1075.372883  1070.630907 0.000923361 
  1054         1075.460739  1070.61306  0.000948767 
  1067         1075.553088  1070.595214 0.000937207 
  1072         1075.650216  1070.577368 0.000932836 
  1154         1075.75233   1070.559522 0.000866551 
  1069         1075.859801  1070.541677 0.000935454 
  1054         1075.9729    1070.523832 0.000948767 
  1071         1076.091971  1070.505988 0.000933707 
  1102         1076.217456  1070.488144 0.000907441 
  1073         1076.349724  1070.4703   0.000931966 
  1077         1076.48937   1070.452457 0.000928505 
  1069         1076.636946  1070.434614 0.000935454 
  1044         1076.793095  1070.416772 0.000957854 
  1057         1076.958697  1070.39893  0.000946074 
  1036         1077.134624  1070.381089 0.000965251 
  1055         1077.322184  1070.363248 0.000947867 
  1081         1077.522745  1070.345407 0.000925069 
  1112         1077.738068  1070.327567 0.000899281 
  1098         1077.970438  1070.309727 0.000910747 
  1066         1078.22246   1070.291888 0.000938086 
  1106         1078.497754  1070.274049 0.000904159 
  1111         1078.800479  1070.256211 0.00090009 
  1094         1079.135923  1070.238373 0.000914077 
  1125         1079.510766  1070.220535 0.000888889 
  1115         1079.9329    1070.202698 0.000896861 
  1102         1080.412638  1070.184861 0.000907441 
  1114         1080.962029  1070.167025 0.000897666 
  1091         1081.595757  1070.149189 0.00091659 
  1096         1082.331739  1070.131353 0.000912409 
  1081         1083.190679  1070.113518 0.000925069 
  1054         1084.198415  1070.095684 0.000948767 
  1060         1085.384039  1070.077849 0.000943396 
  1102         1086.781561  1070.060016 0.000907441 
  1091         1088.430516  1070.042182 0.00091659 
  1083         1090.374477  1070.024349 0.000923361 
  1080         1092.665615  1070.006517 0.000925926 
  1103         1095.359156  1069.988685 0.000906618 
  1112         1098.516461  1069.970853 0.000899281 
  1129         1102.205029  1069.953022 0.00088574 
  1123         1106.494198  1069.935191 0.000890472 
  1115         1111.463965  1069.91736  0.000896861 
  1106         1117.191465  1069.89953  0.000904159 
  1156         1123.756802  1069.881701 0.000865052 
  1105         1131.242394  1069.863872 0.000904977 
  1165         1139.72326   1069.846043 0.000858369 
  1157         1149.28351   1069.828215 0.000864304 
  1126         1159.990329  1069.810387 0.000888099 
  1105         1171.904975  1069.792559 0.000904977 
  1146         1185.083169  1069.774732 0.0008726 
  1176         1199.557239  1069.756906 0.00085034 
  1190         1215.364373  1069.739079 0.000840336 
  1159         1232.506396  1069.721254 0.000862813 
  1160         1250.967562  1069.703428 0.000862069 
  1209         1270.720324  1069.685603 0.00082713 
  1181         1291.695867  1069.667779 0.00084674 
  1255         1313.825995  1069.649955 0.000796813 
  1287         1336.992815  1069.632131 0.000777001 
  1279         1361.051497  1069.614308 0.000781861 
  1267         1385.8467    1069.596485 0.000789266 
  1306         1411.171588  1069.578663 0.000765697 
  1338         1436.821363  1069.560841 0.000747384 
  1379         1462.549935  1069.543019 0.000725163 
  1415         1488.094399  1069.525198 0.000706714 
  1407         1513.210809  1069.507377 0.000710732 
  1485         1537.629283  1069.489557 0.000673401 
  1451         1561.109891  1069.471737 0.00068918 
  1473         1583.419726  1069.453918 0.000678887 
  1559         1604.33844   1069.436099 0.000641437 
  1580         1623.692285  1069.41828  0.000632911 
  1566         1641.297498  1069.400462 0.00063857 
  1509         1656.986902  1069.382644 0.000662691 
  1524         1670.607174  1069.364827 0.000656168 
  1566         1681.998335  1069.34701  0.00063857 
  1634         1691.027762  1069.329194 0.000611995 
  1580         1697.560938  1069.311378 0.000632911 
  1603         1701.477173  1069.293562 0.00062383 
  1660         1702.710403  1069.275747 0.00060241 
  1698         1701.224605  1069.257932 0.000588928 
  1701         1697.038069  1069.240118 0.000587889 
  1705         1690.228296  1069.222304 0.00058651 
  1730         1680.904741  1069.204491 0.000578035 
  1753         1669.252857  1069.186677 0.000570451 
  1785         1655.481728  1069.168865 0.000560224 
  1815         1639.809235  1069.151053 0.000550964 
  1763         1622.488521  1069.133241 0.000567215 
  1679         1603.743396  1069.115429 0.000595593 
  1666         1583.819622  1069.097618 0.00060024 
  1682         1562.937933  1069.079808 0.00059453 
  1621         1541.278194  1069.061998 0.000616903 
  1577         1519.035135  1069.044188 0.000634115 
  1562         1496.359654  1069.026379 0.000640205 
  1556         1473.414676  1069.00857  0.000642674 
  1545         1450.353235  1068.990762 0.000647249 
  1506         1427.302718  1068.972954 0.000664011 
  1433         1404.418739  1068.955146 0.000697837 
  1442         1381.835009  1068.937339 0.000693481 
  1455         1359.690049  1068.919532 0.000687285 
  1418         1338.120635  1068.901726 0.000705219 
  1426         1317.23404   1068.88392  0.000701262 
  1427         1297.144239  1068.866115 0.000700771 
  1380         1277.937909  1068.84831  0.000724638 
  1312         1259.682048  1068.830505 0.000762195 
  1334         1242.438621  1068.812701 0.000749625 
  1305         1226.239905  1068.794897 0.000766284 
  1296         1211.114934  1068.777094 0.000771605 
  1291         1197.074985  1068.759291 0.000774593 
  1223         1184.111345  1068.741488 0.000817661 
  1223         1172.217991  1068.723686 0.000817661 
  1193         1161.370615  1068.705885 0.000838223 
  1213         1151.542997  1068.688083 0.000824402 
  1138         1142.70181   1068.670283 0.000878735 
  1137         1134.80097   1068.652482 0.000879507 
  1197         1127.801602  1068.634682 0.000835422 
  1181         1121.656653  1068.616883 0.00084674 
  1103         1116.320447  1068.599084 0.000906618 
  1118         1111.747685  1068.581285 0.000894454 
  1142         1107.888509  1068.563487 0.000875657 
  1187         1104.702727  1068.545689 0.00084246 
  1107         1102.148783  1068.527892 0.000903342 
  1125         1100.189737  1068.510095 0.000888889 
  1057         1098.792558  1068.492298 0.000946074 
  1070         1097.924446  1068.474502 0.000934579 
  1096         1097.562066  1068.456706 0.000912409 
  1112         1097.681708  1068.438911 0.000899281 
  1072         1098.263842  1068.421116 0.000932836 
  1087         1099.291319  1068.403322 0.000919963 
  1152         1100.745917  1068.385528 0.000868056 
  1139         1102.61595   1068.367734 0.000877963 
  1109         1104.884516  1068.349941 0.000901713 
  1171         1107.535172  1068.332148 0.000853971 
  1151         1110.549249  1068.314356 0.00086881 
  1140         1113.902367  1068.296564 0.000877193 
  1148         1117.573718  1068.278772 0.00087108 
  1104         1121.531075  1068.260981 0.000905797 
  1110         1125.739643  1068.243191 0.000900901 
  1120         1130.15927   1068.2254   0.000892857 
  1125         1134.741361  1068.207611 0.000888889 
  1108         1139.440716  1068.189821 0.000902527 
  1132         1144.198237  1068.172032 0.000883392 
  1173         1148.95295   1068.154244 0.000852515 
  1145         1153.639594  1068.136456 0.000873362 
  1159         1158.186918  1068.118668 0.000862813 
  1167         1162.530095  1068.100881 0.000856898 
  1190         1166.595743  1068.083094 0.000840336 
  1186         1170.315606  1068.065308 0.00084317 
  1185         1173.626375  1068.047522 0.000843882 
  1190         1176.471288  1068.029736 0.000840336 
  1162         1178.809802  1068.011951 0.000860585 
  1217         1180.609435  1067.994166 0.000821693 
  1232         1181.85438   1067.976382 0.000811688 
  1228         1182.543637  1067.958598 0.000814332 
  1226         1182.689519  1067.940815 0.000815661 
  1212         1182.315714  1067.923032 0.000825083 
  1216         1181.453084  1067.905249 0.000822368 
  1240         1180.13777   1067.887467 0.000806452 
  1193         1178.407758  1067.869685 0.000838223 
  1243         1176.302132  1067.851904 0.000804505 
  1191         1173.854721  1067.834123 0.000839631 
  1189         1171.099976  1067.816342 0.000841043 
  1206         1168.068596  1067.798562 0.000829187 
  1167         1164.788738  1067.780783 0.000856898 
  1228         1161.289007  1067.763003 0.000814332 
  1160         1157.591586  1067.745225 0.000862069 
  1190         1153.725006  1067.727446 0.000840336 
  1178         1149.717585  1067.709668 0.000848896 
  1177         1145.599657  1067.691891 0.000849618 
  1157         1141.405934  1067.674114 0.000864304 
  1125         1137.165487  1067.656337 0.000888889 
  1158         1132.914889  1067.638561 0.000863558 
  1178         1128.687793  1067.620785 0.000848896 
  1175         1124.516132  1067.60301  0.000851064 
  1173         1120.43165   1067.585235 0.000852515 
  1170         1116.456151  1067.56746  0.000854701 
  1194         1112.614972  1067.549686 0.000837521 
  1136         1108.927688  1067.531912 0.000880282 
  1134         1105.410366  1067.514139 0.000881834 
  1137         1102.077567  1067.496366 0.000879507 
  1129         1098.935066  1067.478594 0.00088574 
  1140         1095.991262  1067.460822 0.000877193 
  1111         1093.249821  1067.44305  0.00090009 
  1068         1090.711703  1067.425279 0.00093633 
  1108         1088.376667  1067.407508 0.000902527 
  1071         1086.238414  1067.389738 0.000933707 
  1117         1084.292596  1067.371968 0.000895255 
  1097         1082.531804  1067.354199 0.000911577 
  1078         1080.947157  1067.336429 0.000927644 
  1083         1079.529354  1067.318661 0.000923361 
  1123         1078.265943  1067.300893 0.000890472 
  1062         1077.146237  1067.283125 0.00094162 
  1055         1076.158425  1067.265358 0.000947867 
  1073         1075.290599  1067.247591 0.000931966 
  1085         1074.531404  1067.229824 0.000921659 
  1052         1073.868629  1067.212058 0.00095057 
  1043         1073.291812  1067.194292 0.000958773 
  1096         1072.790704  1067.176527 0.000912409 
  1122         1072.355757  1067.158762 0.000891266 
  1050         1071.978393  1067.140998 0.000952381 
  1062         1071.650311  1067.123234 0.00094162 
  1063         1071.364589  1067.10547  0.000940734 
  1044         1071.114931  1067.087707 0.000957854 
  1063         1070.895792  1067.069945 0.000940734 
  1051         1070.702441  1067.052182 0.000951475 
  1084         1070.530577  1067.03442  0.000922509 
  1098         1070.376752  1067.016659 0.000910747 
  1066         1070.237991  1066.998898 0.000938086 
  1042         1070.111779  1066.981137 0.000959693 
  1065         1069.996082  1066.963377 0.000938967 
  1073         1069.889087  1066.945617 0.000931966 
  1050         1069.78942   1066.927858 0.000952381 
  1093         1069.695932  1066.910099 0.000914913 
  1084         1069.607672  1066.892341 0.000922509 
  1059         1069.52391   1066.874583 0.000944287 
  1044         1069.443973  1066.856825 0.000957854 
  1060         1069.367384  1066.839068 0.000943396 
  1040         1069.293746  1066.821311 0.000961538 
  1084         1069.222723  1066.803555 0.000922509 
  1087         1069.154071  1066.785799 0.000919963 
  1065         1069.08753   1066.768043 0.000938967 
  1033         1069.022933  1066.750288 0.000968054 
  992          1068.960131  1066.732534 0.001008065 
  1039         1068.898996  1066.714779 0.000962464 
  1027         1068.839424  1066.697026 0.00097371 
  1087         1068.781297  1066.679272 0.000919963 
  1025         1068.724537  1066.661519 0.00097561 
  1094         1068.669075  1066.643767 0.000914077 
  1086         1068.614839  1066.626015 0.00092081 
  1061         1068.561777  1066.608263 0.000942507 
  1111         1068.509813  1066.590512 0.00090009 
  1113         1068.458904  1066.572761 0.000898473 
  1103         1068.409001  1066.55501  0.000906618 
  1046         1068.360061  1066.53726  0.000956023 
  1078         1068.312047  1066.519511 0.000927644 
  1094         1068.264906  1066.501762 0.000914077 
  1019         1068.218604  1066.484013 0.000981354 
  1068         1068.173112  1066.466265 0.00093633 
  1077         1068.128391  1066.448517 0.000928505 
  1080         1068.084423  1066.430769 0.000925926 
  1043         1068.041159  1066.413022 0.000958773 
  1028         1067.998578  1066.395276 0.000972763 
  1014         1067.956657  1066.377529 0.000986193 
  1050         1067.915367  1066.359784 0.000952381 
  1065         1067.874694  1066.342038 0.000938967 
  1106         1067.834601  1066.324293 0.000904159 
  1046         1067.795069  1066.306549 0.000956023 
  1051         1067.756084  1066.288805 0.000951475 
  1051         1067.717621  1066.271061 0.000951475 
  1042         1067.679671  1066.253318 0.000959693 
  1057         1067.642203  1066.235575 0.000946074 
  1045         1067.605203  1066.217833 0.000956938 
  1044         1067.568659  1066.200091 0.000957854 
  1065         1067.532556  1066.182349 0.000938967 
  1092         1067.49688   1066.164608 0.000915751 
  1074         1067.46161   1066.146867 0.000931099 
  1063         1067.426736  1066.129127 0.000940734 
  1062         1067.392245  1066.111387 0.00094162 
  1067         1067.358127  1066.093648 0.000937207 
  1050         1067.324373  1066.075909 0.000952381 
  1036         1067.290963  1066.05817  0.000965251 
  1069         1067.257888  1066.040432 0.000935454 
  1057         1067.225143  1066.022694 0.000946074 
  1020         1067.192712  1066.004957 0.000980392 
  1065         1067.160594  1065.98722  0.000938967 
  1070         1067.12877   1065.969484 0.000934579 
  1046         1067.097235  1065.951748 0.000956023 
  1033         1067.065981  1065.934012 0.000968054 
  1076         1067.034999  1065.916277 0.000929368 
  1097         1067.004286  1065.898542 0.000911577 
  1076         1066.973827  1065.880808 0.000929368 
  1082         1066.943617  1065.863074 0.000924214 
  1077         1066.907533  1065.84534  0.000928505 
  1045         1066.877809  1065.827607 0.000956938 
  1073         1066.848319  1065.809875 0.000931966 
  1042         1066.81905   1065.792143 0.000959693 
  1017         1066.789997  1065.774411 0.000983284 
  1021         1066.761157  1065.756679 0.000979432 
  1092         1066.732522  1065.738948 0.000915751 
  1023         1066.70409   1065.721218 0.000977517 
  1104         1066.675852  1065.703488 0.000905797 
  1063         1066.647802  1065.685758 0.000940734 
  1064         1066.616879  1065.668029 0.00093985 
  996          1066.5892    1065.6503   0.001004016 
  1072         1066.561699  1065.632572 0.000932836 
  1016         1066.534368  1065.614844 0.000984252 
  1060         1066.507203  1065.597116 0.000943396 
  1145         1066.480202  1065.579389 0.000873362 
  1033         1066.453361  1065.561662 0.000968054 
  1006         1066.426676  1065.543936 0.000994036 
  1106         1066.400142  1065.52621  0.000904159 
  1079         1066.373755  1065.508484 0.000926784 
  1123         1066.347513  1065.490759 0.000890472 
  1112         1066.321411  1065.473035 0.000899281 
  1059         1066.29545   1065.455311 0.000944287 
  1072         1066.269622  1065.437587 0.000932836 
  1051         1066.243924  1065.419864 0.000951475 
  1055         1066.218355  1065.402141 0.000947867 
  1048         1066.192912  1065.384418 0.000954198 
  1058         1066.167593  1065.366696 0.00094518 
  1066         1066.142393  1065.348974 0.000938086 
  1092         1066.117309  1065.331253 0.000915751 
  1091         1066.092341  1065.313532 0.00091659 
  1106         1066.067485  1065.295812 0.000904159 
  1072         1066.04274   1065.278092 0.000932836 
  1063         1066.018101  1065.260373 0.000940734 
  1097         1065.993567  1065.242653 0.000911577 
  1150         1065.969137  1065.224935 0.000869565 
  1100         1065.944806  1065.207217 0.000909091 
  1019         1065.920576  1065.189499 0.000981354 
  1063         1065.896441  1065.171781 0.000940734 
  1110         1065.8724    1065.154064 0.000900901 
  1082         1065.848453  1065.136348 0.000924214 
  1108         1065.824595  1065.118632 0.000902527 
  1112         1065.800828  1065.100916 0.000899281 
  1082         1065.777147  1065.083201 0.000924214 
  1096         1065.753551  1065.065486 0.000912409 
  1114         1065.730038  1065.047771 0.000897666 
  1064         1065.706608  1065.030057 0.00093985 
  1061         1065.683259  1065.012344 0.000942507 
  1097         1065.659988  1064.99463  0.000911577 
  1075         1065.636793  1064.976918 0.000930233 
  1110         1065.613674  1064.959205 0.000900901 
  1111         1065.59063   1064.941494 0.00090009 
  1100         1065.56766   1064.923782 0.000909091 
  1093         1065.544761  1064.906071 0.000914913 
  1078         1065.52193   1064.88836  0.000927644 
  1097         1065.499169  1064.87065  0.000911577 
  1094         1065.476476  1064.85294  0.000914077 
  1120         1065.45385   1064.835231 0.000892857 
  1057         1065.431288  1064.817522 0.000946074 
  1093         1065.408789  1064.799813 0.000914913 
  1136         1065.386354  1064.782105 0.000880282 
  1125         1065.36398   1064.764398 0.000888889 
  1067         1065.341667  1064.74669  0.000937207 
  1071         1065.319413  1064.728984 0.000933707 
  1070         1065.297217  1064.711277 0.000934579 
  1114         1065.275078  1064.693571 0.000897666 
  1072         1065.252996  1064.675866 0.000932836 
  1067         1065.230969  1064.658161 0.000937207 
  1109         1065.208996  1064.640456 0.000901713 
  1101         1065.187077  1064.622752 0.000908265 
  1061         1065.16521   1064.605048 0.000942507 
  1051         1065.143394  1064.587344 0.000951475 
  1040         1065.12163   1064.569641 0.000961538 
  1030         1065.099915  1064.551939 0.000970874 
  1060         1065.078248  1064.534236 0.000943396 
  1099         1065.05663   1064.516535 0.000909918 
  1088         1065.035059  1064.498833 0.000919118 
  1059         1065.013536  1064.481132 0.000944287 
  1075         1064.992057  1064.463432 0.000930233 
  1071         1064.970624  1064.445732 0.000933707 
  1092         1064.949235  1064.428032 0.000915751 
  1086         1064.927889  1064.410333 0.00092081 
  1056         1064.906587  1064.392634 0.00094697 
  1069         1064.885326  1064.374936 0.000935454 
  1082         1064.864107  1064.357238 0.000924214 
  1074         1064.842928  1064.33954  0.000931099 
  1086         1064.82179   1064.321843 0.00092081 
  1126         1064.800692  1064.304147 0.000888099 
  1088         1064.779632  1064.28645  0.000919118 
  1059         1064.758611  1064.268755 0.000944287 
  1045         1064.737627  1064.251059 0.000956938 
  1052         1064.71668   1064.233364 0.00095057 
  1056         1064.69577   1064.21567  0.00094697 
  1052         1064.674896  1064.197976 0.00095057 
  1092         1064.654057  1064.180282 0.000915751 
  1094         1064.633254  1064.162589 0.000914077 
  1057         1064.612484  1064.144896 0.000946074 
  1067         1064.591749  1064.127203 0.000937207 
  1037         1064.571047  1064.109511 0.00096432 
  1038         1064.550377  1064.09182  0.000963391 
  1042         1064.52974   1064.074129 0.000959693 
  1059         1064.509135  1064.056438 0.000944287 
  1117         1064.488561  1064.038747 0.000895255 
  1129         1064.468018  1064.021058 0.00088574 
  1092         1064.447506  1064.003368 0.000915751 
  1033         1064.427023  1063.985679 0.000968054 
  1026         1064.406571  1063.96799  0.000974659 
  1025         1064.386147  1063.950302 0.00097561 
  1064         1064.365752  1063.932614 0.00093985 
  1119         1064.345386  1063.914927 0.000893655 
  1076         1064.325047  1063.89724  0.000929368 
  1073         1064.304736  1063.879554 0.000931966 
  1118         1064.284453  1063.861868 0.000894454 
  1061         1064.264196  1063.844182 0.000942507 
  1061         1064.243965  1063.826497 0.000942507 
  1048         1064.22376   1063.808812 0.000954198 
  1071         1064.203581  1063.791127 0.000933707 
  1054         1064.183428  1063.773443 0.000948767 
  1067         1064.163299  1063.75576  0.000937207 
  1058         1064.143195  1063.738077 0.00094518 
  1057         1064.123116  1063.720394 0.000946074 
  1036         1064.10306   1063.702712 0.000965251 
  1047         1064.083028  1063.68503  0.00095511 
  1040         1064.06302   1063.667348 0.000961538 
  1064         1064.043034  1063.649667 0.00093985 
  1061         1064.023071  1063.631987 0.000942507 
  1062         1064.00313   1063.614307 0.00094162 
  1068         1063.983212  1063.596627 0.00093633 
  1068         1063.963315  1063.578948 0.00093633 
  1075         1063.94344   1063.561269 0.000930233 
  1084         1063.923586  1063.54359  0.000922509 
  1081         1063.903753  1063.525912 0.000925069 
  1129         1063.883941  1063.508235 0.00088574 
  1100         1063.86415   1063.490557 0.000909091 
  1020         1063.844378  1063.472881 0.000980392 
  1121         1063.824627  1063.455204 0.000892061 
  1136         1063.804894  1063.437528 0.000880282 
  1072         1063.785182  1063.419853 0.000932836 
  1065         1063.765489  1063.402178 0.000938967 
  1072         1063.745814  1063.384503 0.000932836 
  1070         1063.726159  1063.366829 0.000934579 
  1088         1063.706521  1063.349155 0.000919118 
  1098         1063.686903  1063.331482 0.000910747 
  1074         1063.667302  1063.313809 0.000931099 
  1079         1063.647718  1063.296136 0.000926784 
  1108         1063.628153  1063.278464 0.000902527 
  1111         1063.608604  1063.260792 0.00090009 
  1097         1063.589073  1063.243121 0.000911577 
  1130         1063.569559  1063.22545  0.000884956 
  1120         1063.550061  1063.20778  0.000892857 
  1108         1063.53058   1063.19011  0.000902527 
  1160         1063.511116  1063.17244  0.000862069 
  1167         1063.491667  1063.154771 0.000856898 
  1142         1063.472235  1063.137102 0.000875657 
  1092         1063.452818  1063.119434 0.000915751 
  1085         1063.433417  1063.101766 0.000921659 
  1140         1063.414031  1063.084099 0.000877193 
  1157         1063.39466   1063.066432 0.000864304 
  1123         1063.375305  1063.048765 0.000890472 
  1089         1063.355964  1063.031099 0.000918274 
  1102         1063.336637  1063.013433 0.000907441 
  1099         1063.317326  1062.995768 0.000909918 
  1086         1063.298029  1062.978103 0.00092081 
  1078         1063.278746  1062.960438 0.000927644 
  1087         1063.259476  1062.942774 0.000919963 
  1088         1063.240221  1062.92511  0.000919118 
  1102         1063.22098   1062.907447 0.000907441 
  1098         1063.201752  1062.889784 0.000910747 
  1067         1063.182537  1062.872122 0.000937207 
  1117         1063.163336  1062.85446  0.000895255 
  1102         1063.144147  1062.836799 0.000907441 
  1092         1063.124972  1062.819137 0.000915751 
  1096         1063.10581   1062.801477 0.000912409 
  1131         1063.08666   1062.783816 0.000884173 
  1106         1063.067522  1062.766157 0.000904159 
  1058         1063.048397  1062.748497 0.00094518 
  1100         1063.029284  1062.730838 0.000909091 
  1100         1063.010184  1062.71318  0.000909091 
  1077         1062.991095  1062.695521 0.000928505 
  1044         1062.972019  1062.677864 0.000957854 
  1094         1062.952953  1062.660206 0.000914077 
  1086         1062.9339    1062.64255  0.00092081 
  1060         1062.914858  1062.624893 0.000943396 
  1062         1062.895828  1062.607237 0.00094162 
  1041         1062.876808  1062.589581 0.000960615 
  1058         1062.8578    1062.571926 0.00094518 
  1010         1062.838803  1062.554271 0.000990099 
  1035         1062.819816  1062.536617 0.000966184 
  1099         1062.800841  1062.518963 0.000909918 
  1019         1062.781876  1062.50131  0.000981354 
  1075         1062.762921  1062.483657 0.000930233 
  1116         1062.743977  1062.466004 0.000896057 
  1095         1062.725044  1062.448352 0.000913242 
  1071         1062.70612   1062.4307   0.000933707 
  1104         1062.687207  1062.413049 0.000905797 
  1151         1062.668304  1062.395398 0.00086881 
  1088         1062.64941   1062.377747 0.000919118 
  1139         1062.630527  1062.360097 0.000877963 
  1091         1062.611653  1062.342447 0.00091659 
  1085         1062.592789  1062.324798 0.000921659 
  1057         1062.573934  1062.307149 0.000946074 
  1087         1062.555089  1062.289501 0.000919963 
  1092         1062.536253  1062.271853 0.000915751 
  1137         1062.517426  1062.254205 0.000879507 
  1119         1062.498608  1062.236558 0.000893655 
  1080         1062.4798    1062.218911 0.000925926 
  1123         1062.461     1062.201265 0.000890472 
  1189         1062.44221   1062.183619 0.000841043 
  1193         1062.423428  1062.165974 0.000838223 
#--eof--eof--eof--eof--eof--eof--eof--eof--eof--eof--eof--eof--eof--eof--eof--#
